* NGSPICE file created from gf180mcu_3v3_12t_2r2w_sram_1024x8.ext - technology: gf180mcuD

.subckt detronyx_12t_write_driver_rc1 VDD VSS din wen wbl0 wbr0 a_240_2348#
X0 VDD a_240_2348# a_326_9670# VDD pfet_03v3 ad=0.1232p pd=1u as=0.1232p ps=1u w=0.56u l=0.28u
X1 VSS wen a_988_2348# VSS nfet_03v3 ad=0.4642p pd=2.99u as=0.4642p ps=2.99u w=1.055u l=0.28u
X2 VDD wen a_326_9670# VDD pfet_03v3 ad=0.1232p pd=1u as=0.1232p ps=1u w=0.56u l=0.28u
X3 VSS a_844_5266# a_328_6681# VSS nfet_03v3 ad=0.4642p pd=2.99u as=0.4642p ps=2.99u w=1.055u l=0.28u
X4 VSS wen a_240_3807# VSS nfet_03v3 ad=0.4642p pd=2.99u as=0.4642p ps=2.99u w=1.055u l=0.28u
X5 VDD wen a_326_11114# VDD pfet_03v3 ad=0.1232p pd=1u as=0.1232p ps=1u w=0.56u l=0.28u
X6 VDD wen a_844_2348# VDD pfet_03v3 ad=0.1232p pd=1u as=0.1232p ps=1u w=0.56u l=0.28u
X7 a_240_3807# a_240_2348# a_326_9670# VSS nfet_03v3 ad=0.4642p pd=2.99u as=0.4642p ps=2.99u w=1.055u l=0.28u
X8 VDD din a_844_5266# VDD pfet_03v3 ad=0.1232p pd=1u as=0.1232p ps=1u w=0.56u l=0.28u
X9 VDD wen a_844_5266# VDD pfet_03v3 ad=0.1232p pd=1u as=0.1232p ps=1u w=0.56u l=0.28u
X10 VDD a_240_2348# a_326_11114# VDD pfet_03v3 ad=0.1232p pd=1u as=0.1232p ps=1u w=0.56u l=0.28u
X11 VDD a_844_2348# wbl0 VDD pfet_03v3 ad=0.1232p pd=1u as=0.1232p ps=1u w=0.56u l=0.28u
X12 VDD a_844_5266# a_328_6681# VDD pfet_03v3 ad=0.1232p pd=1u as=0.1232p ps=1u w=0.56u l=0.28u
X13 VSS a_844_3807# wbl0 VSS nfet_03v3 ad=0.4642p pd=2.99u as=0.4642p ps=2.99u w=1.055u l=0.28u
X14 VDD din a_844_2348# VDD pfet_03v3 ad=0.1232p pd=1u as=0.1232p ps=1u w=0.56u l=0.28u
X15 a_988_5266# din a_844_5266# VSS nfet_03v3 ad=0.4642p pd=2.99u as=0.4642p ps=2.99u w=1.055u l=0.28u
X16 a_240_5266# a_240_2348# a_326_11114# VSS nfet_03v3 ad=0.4642p pd=2.99u as=0.4642p ps=2.99u w=1.055u l=0.28u
X17 VDD a_326_9670# a_844_3807# VDD pfet_03v3 ad=0.1232p pd=1u as=0.1232p ps=1u w=0.56u l=0.28u
X18 a_988_2348# din a_844_2348# VSS nfet_03v3 ad=0.4642p pd=2.99u as=0.4642p ps=2.99u w=1.055u l=0.28u
X19 VSS wen a_240_5266# VSS nfet_03v3 ad=0.4642p pd=2.99u as=0.4642p ps=2.99u w=1.055u l=0.28u
X20 VSS din a_240_2348# VSS nfet_03v3 ad=0.4642p pd=2.99u as=0.4642p ps=2.99u w=1.055u l=0.28u
X21 VSS a_326_9670# a_844_3807# VSS nfet_03v3 ad=0.4642p pd=2.99u as=0.4642p ps=2.99u w=1.055u l=0.28u
X22 VDD din a_240_2348# VDD pfet_03v3 ad=0.1232p pd=1u as=0.1232p ps=1u w=0.56u l=0.28u
X23 VSS wen a_988_5266# VSS nfet_03v3 ad=0.4642p pd=2.99u as=0.4642p ps=2.99u w=1.055u l=0.28u
X24 VDD a_326_11114# wbr0 VDD pfet_03v3 ad=0.1232p pd=1u as=0.1232p ps=1u w=0.56u l=0.28u
X25 VSS a_328_6681# wbr0 VSS nfet_03v3 ad=0.4642p pd=2.99u as=0.4642p ps=2.99u w=1.055u l=0.28u
.ends

.subckt detronyx_12t_precharge_sense_rc1 VDD VSS pchgb ren rbl0 dout a_672_2172# a_240_2172#
X0 VDD rbl0 a_240_2172# VDD pfet_03v3 ad=0.1232p pd=1u as=0.1232p ps=1u w=0.56u l=0.28u
X1 VSS a_240_2172# a_672_2172# VSS nfet_03v3 ad=0.4642p pd=2.99u as=0.4642p ps=2.99u w=1.055u l=0.28u
X2 VSS rbl0 a_240_2172# VSS nfet_03v3 ad=0.4642p pd=2.99u as=0.4642p ps=2.99u w=1.055u l=0.28u
X3 VDD pchgb rbl0 VDD pfet_03v3 ad=0.1232p pd=1u as=0.1232p ps=1u w=0.56u l=0.28u
X4 VDD a_672_2172# dout VDD pfet_03v3 ad=0.1232p pd=1u as=0.1232p ps=1u w=0.56u l=0.28u
X5 VSS a_672_2172# dout VSS nfet_03v3 ad=0.4642p pd=2.99u as=0.4642p ps=2.99u w=1.055u l=0.28u
X6 VDD a_240_2172# a_672_2172# VDD pfet_03v3 ad=0.1232p pd=1u as=0.1232p ps=1u w=0.56u l=0.28u
.ends

.subckt gf180mcu_as_sc_mcu7t3v3__inv_2 VDD VSS Y A VNW VPW
X0 VDD A Y VNW pfet_03v3 ad=0.6072p pd=3.64u as=0.3588p ps=1.9u w=1.38u l=0.28u
X1 Y A VSS VPW nfet_03v3 ad=0.26p pd=1.52u as=0.44p ps=2.88u w=1u l=0.28u
X2 Y A VDD VNW pfet_03v3 ad=0.3588p pd=1.9u as=0.6072p ps=3.64u w=1.38u l=0.28u
X3 VSS A Y VPW nfet_03v3 ad=0.44p pd=2.88u as=0.26p ps=1.52u w=1u l=0.28u
.ends

.subckt gf180mcu_as_sc_mcu7t3v3__nand4_2 VDD VSS A B C D Y VNW VPW
X0 VDD A Y VNW pfet_03v3 ad=0.3588p pd=1.9u as=0.3588p ps=1.9u w=1.38u l=0.28u
X1 Y D a_796_68# VPW nfet_03v3 ad=0.26p pd=1.52u as=0.26p ps=1.52u w=1u l=0.28u
X2 VSS A a_28_68# VPW nfet_03v3 ad=0.26p pd=1.52u as=0.44p ps=2.88u w=1u l=0.28u
X3 VDD C Y VNW pfet_03v3 ad=0.3588p pd=1.9u as=0.3588p ps=1.9u w=1.38u l=0.28u
X4 a_796_68# C a_492_68# VPW nfet_03v3 ad=0.26p pd=1.52u as=0.26p ps=1.52u w=1u l=0.28u
X5 Y B VDD VNW pfet_03v3 ad=0.3588p pd=1.9u as=0.3588p ps=1.9u w=1.38u l=0.28u
X6 a_28_68# B a_492_68# VPW nfet_03v3 ad=0.44p pd=2.88u as=0.26p ps=1.52u w=1u l=0.28u
X7 Y D VDD VNW pfet_03v3 ad=0.3588p pd=1.9u as=0.3588p ps=1.9u w=1.38u l=0.28u
X8 VDD B Y VNW pfet_03v3 ad=0.8004p pd=2.54u as=0.3588p ps=1.9u w=1.38u l=0.28u
X9 Y C VDD VNW pfet_03v3 ad=0.3588p pd=1.9u as=0.8004p ps=2.54u w=1.38u l=0.28u
X10 a_492_68# C a_796_68# VPW nfet_03v3 ad=0.26p pd=1.52u as=0.44p ps=2.88u w=1u l=0.28u
X11 a_492_68# B a_28_68# VPW nfet_03v3 ad=0.26p pd=1.52u as=0.26p ps=1.52u w=1u l=0.28u
X12 VDD D Y VNW pfet_03v3 ad=0.6348p pd=3.68u as=0.3588p ps=1.9u w=1.38u l=0.28u
X13 Y A VDD VNW pfet_03v3 ad=0.3588p pd=1.9u as=0.6072p ps=3.64u w=1.38u l=0.28u
X14 a_796_68# D Y VPW nfet_03v3 ad=0.46p pd=2.92u as=0.26p ps=1.52u w=1u l=0.28u
X15 a_28_68# A VSS VPW nfet_03v3 ad=0.26p pd=1.52u as=0.26p ps=1.52u w=1u l=0.28u
.ends

.subckt detronyx_12t_2w2r_rc4_4x4_routed_5layer_direct c0_w0_bl c0_w0_br c0_w1_bl
+ c0_w1_br c0_r0_rbl c0_r1_rbl c1_w0_bl c1_w0_br c1_w1_bl c1_w1_br c1_r0_rbl c1_r1_rbl
+ c2_w0_bl c2_w0_br c2_w1_bl c2_w1_br c2_r0_rbl c2_r1_rbl c3_w0_bl c3_w0_br c3_w1_bl
+ c3_w1_br c3_r0_rbl c3_r1_rbl r0_w0_wl r0_w1_wl r0_r0_rwl r0_r1_rwl r1_w0_wl r1_w1_wl
+ r1_r0_rwl r1_r1_rwl r2_w0_wl r2_w1_wl r2_r0_rwl r2_r1_rwl r3_w0_wl r3_w1_wl r3_r0_rwl
+ r3_r1_rwl VDD VSS m2_717_1265# m2_603_2031# m2_1290_336# m2_2000_2037# m2_791_2909#
+ m2_7_2126# m2_2154_2081# m2_1795_2037# m2_871_303# m2_431_438# m2_1290_2898# m2_1714_1210#
+ m2_431_1982# m2_512_1265# m2_2573_2126# m2_603_1259# m2_2074_2909# m2_7_336# m2_717_2037#
+ m2_1886_2031# m2_2573_336# m2_7_2898# m2_2000_1265# m2_512_2037# m2_1795_1265# m2_1714_1982#
+ m2_1886_1259# m2_1290_2126# m2_1714_438# m2_431_1210# m2_2573_2898# m2_2154_303#
+ m2_871_2081# VSUBS
X0 a_684_1814# a_484_1742# a_680_1660# VSUBS nfet_03v3 ad=0.1288p pd=1.48u as=0.1208p ps=1.42u w=0.28u l=0.36u
X1 a_1365_936# a_1283_888# a_1421_1243# w_1283_1162# pfet_03v3 ad=0.1238p pd=1.44u as=0.3061p ps=2.445u w=0.28u l=0.28u
X2 a_2215_1938# a_2159_1894# a_2071_1938# VSUBS nfet_03v3 ad=0.1378p pd=1.05u as=0.2332p ps=1.94u w=0.53u l=0.28u
X3 a_82_1708# a_484_2028# a_532_1946# VSUBS nfet_03v3 ad=0.1288p pd=1.48u as=0.1208p ps=1.42u w=0.28u l=0.36u
X4 a_2648_1708# a_2566_1660# a_2704_1752# VSUBS nfet_03v3 ad=0.3133p pd=2.64u as=0.342p ps=2.21u w=0.45u l=0.28u
X5 a_3658_932# a_3602_888# a_3498_932# VSUBS nfet_03v3 ad=0.23585p pd=1.95u as=0.1378p ps=1.05u w=0.53u l=0.28u
X6 a_932_1938# a_876_1894# a_788_1938# VSUBS nfet_03v3 ad=0.1378p pd=1.05u as=0.2332p ps=1.94u w=0.53u l=0.28u
X7 a_3250_2100# a_3050_2028# a_3246_1946# VSUBS nfet_03v3 ad=0.1288p pd=1.48u as=0.1208p ps=1.42u w=0.28u l=0.36u
X8 a_2375_160# a_2319_116# a_2215_160# VSUBS nfet_03v3 ad=0.23585p pd=1.95u as=0.1378p ps=1.05u w=0.53u l=0.28u
X9 a_1365_936# a_1283_888# a_1421_980# VSUBS nfet_03v3 ad=0.3133p pd=2.64u as=0.342p ps=2.21u w=0.45u l=0.28u
X10 a_4533_2100# a_4333_2028# a_4529_1946# VSUBS nfet_03v3 ad=0.1288p pd=1.48u as=0.1208p ps=1.42u w=0.28u l=0.36u
X11 a_82_164# a_0_116# a_138_471# w_0_390# pfet_03v3 ad=0.1238p pd=1.44u as=0.3061p ps=2.445u w=0.28u l=0.28u
X12 a_82_936# a_484_970# a_532_888# VSUBS nfet_03v3 ad=0.1288p pd=1.48u as=0.1208p ps=1.42u w=0.28u l=0.36u
X13 a_3931_1708# a_3849_1660# a_3987_2015# w_3849_1934# pfet_03v3 ad=0.1238p pd=1.44u as=0.3061p ps=2.445u w=0.28u l=0.28u
X14 a_1967_1042# a_1767_970# a_1963_888# VSUBS nfet_03v3 ad=0.1288p pd=1.48u as=0.1208p ps=1.42u w=0.28u l=0.36u
X15 a_1421_2787# a_1365_2480# a_1283_2432# w_1283_2706# pfet_03v3 ad=0.3061p pd=2.445u as=0.1238p ps=1.44u w=0.28u l=0.28u
X16 a_1365_2480# a_1767_2514# a_1815_2432# VSUBS nfet_03v3 ad=0.1288p pd=1.48u as=0.1208p ps=1.42u w=0.28u l=0.36u
X17 a_2704_2787# a_2648_2480# a_2566_2432# w_2566_2706# pfet_03v3 ad=0.3061p pd=2.445u as=0.1238p ps=1.44u w=0.28u l=0.28u
X18 a_138_2787# a_82_2480# a_0_2432# w_0_2706# pfet_03v3 ad=0.3061p pd=2.445u as=0.1238p ps=1.44u w=0.28u l=0.28u
X19 a_2648_936# a_3050_1256# a_3098_1174# VSUBS nfet_03v3 ad=0.1288p pd=1.48u as=0.1208p ps=1.42u w=0.28u l=0.36u
X20 a_1365_2480# a_1767_2800# a_1815_2718# VSUBS nfet_03v3 ad=0.1288p pd=1.48u as=0.1208p ps=1.42u w=0.28u l=0.36u
X21 a_2704_980# a_2648_936# a_2566_888# VSUBS nfet_03v3 ad=0.342p pd=2.21u as=0.3133p ps=2.64u w=0.45u l=0.28u
X22 a_82_1708# a_0_1660# a_138_1752# VSUBS nfet_03v3 ad=0.3133p pd=2.64u as=0.342p ps=2.21u w=0.45u l=0.28u
X23 a_3931_164# a_4333_198# a_4381_116# VSUBS nfet_03v3 ad=0.1288p pd=1.48u as=0.1208p ps=1.42u w=0.28u l=0.36u
X24 a_1092_160# a_1036_116# a_932_160# VSUBS nfet_03v3 ad=0.23585p pd=1.95u as=0.1378p ps=1.05u w=0.53u l=0.28u
X25 a_82_164# a_0_116# a_138_208# VSUBS nfet_03v3 ad=0.3133p pd=2.64u as=0.342p ps=2.21u w=0.45u l=0.28u
X26 a_4941_932# a_4885_1122# a_4781_1166# VSUBS nfet_03v3 ad=0.23585p pd=1.95u as=0.1378p ps=1.05u w=0.53u l=0.28u
X27 a_3931_164# a_4333_484# a_4381_402# VSUBS nfet_03v3 ad=0.1288p pd=1.48u as=0.1208p ps=1.42u w=0.28u l=0.36u
X28 a_2648_164# a_2566_116# a_2704_471# w_2566_390# pfet_03v3 ad=0.1238p pd=1.44u as=0.3061p ps=2.445u w=0.28u l=0.28u
X29 a_3498_1166# a_3442_1122# a_3354_1166# VSUBS nfet_03v3 ad=0.1378p pd=1.05u as=0.2332p ps=1.94u w=0.53u l=0.28u
X30 a_4533_270# a_4333_198# a_4529_116# VSUBS nfet_03v3 ad=0.1288p pd=1.48u as=0.1208p ps=1.42u w=0.28u l=0.36u
X31 a_2375_932# a_2319_888# a_2215_932# VSUBS nfet_03v3 ad=0.23585p pd=1.95u as=0.1378p ps=1.05u w=0.53u l=0.28u
X32 a_4781_1166# a_4725_1122# a_4637_1166# VSUBS nfet_03v3 ad=0.1378p pd=1.05u as=0.2332p ps=1.94u w=0.53u l=0.28u
X33 a_3658_1704# a_3602_1660# a_3498_1704# VSUBS nfet_03v3 ad=0.23585p pd=1.95u as=0.1378p ps=1.05u w=0.53u l=0.28u
X34 a_684_2586# a_484_2514# a_680_2432# VSUBS nfet_03v3 ad=0.1288p pd=1.48u as=0.1208p ps=1.42u w=0.28u l=0.36u
X35 a_1365_1708# a_1283_1660# a_1421_2015# w_1283_1934# pfet_03v3 ad=0.1238p pd=1.44u as=0.3061p ps=2.445u w=0.28u l=0.28u
X36 a_4533_556# a_4333_484# a_4529_402# VSUBS nfet_03v3 ad=0.1288p pd=1.48u as=0.1208p ps=1.42u w=0.28u l=0.36u
X37 a_1092_2476# a_1036_2666# a_932_2710# VSUBS nfet_03v3 ad=0.23585p pd=1.95u as=0.1378p ps=1.05u w=0.53u l=0.28u
X38 a_2215_1704# a_2159_1660# a_2071_1704# VSUBS nfet_03v3 ad=0.1378p pd=1.05u as=0.2332p ps=1.94u w=0.53u l=0.28u
X39 a_3987_471# a_3931_164# a_3849_116# w_3849_390# pfet_03v3 ad=0.3061p pd=2.445u as=0.1238p ps=1.44u w=0.28u l=0.28u
X40 a_4781_394# a_4725_350# a_4637_394# VSUBS nfet_03v3 ad=0.1378p pd=1.05u as=0.2332p ps=1.94u w=0.53u l=0.28u
X41 a_1421_980# a_1365_936# a_1283_888# VSUBS nfet_03v3 ad=0.342p pd=2.21u as=0.3133p ps=2.64u w=0.45u l=0.28u
X42 a_684_2872# a_484_2800# a_680_2718# VSUBS nfet_03v3 ad=0.1288p pd=1.48u as=0.1208p ps=1.42u w=0.28u l=0.36u
X43 a_2375_2476# a_2319_2666# a_2215_2710# VSUBS nfet_03v3 ad=0.23585p pd=1.95u as=0.1378p ps=1.05u w=0.53u l=0.28u
X44 a_2648_2480# a_2566_2432# a_2704_2524# VSUBS nfet_03v3 ad=0.3133p pd=2.64u as=0.342p ps=2.21u w=0.45u l=0.28u
X45 a_932_1704# a_876_1660# a_788_1704# VSUBS nfet_03v3 ad=0.1378p pd=1.05u as=0.2332p ps=1.94u w=0.53u l=0.28u
X46 a_2648_164# a_2566_116# a_2704_208# VSUBS nfet_03v3 ad=0.3133p pd=2.64u as=0.342p ps=2.21u w=0.45u l=0.28u
X47 a_1967_1328# a_1767_1256# a_1963_1174# VSUBS nfet_03v3 ad=0.1288p pd=1.48u as=0.1208p ps=1.42u w=0.28u l=0.36u
X48 a_82_1708# a_484_1742# a_532_1660# VSUBS nfet_03v3 ad=0.1288p pd=1.48u as=0.1208p ps=1.42u w=0.28u l=0.36u
X49 a_3250_1814# a_3050_1742# a_3246_1660# VSUBS nfet_03v3 ad=0.1288p pd=1.48u as=0.1208p ps=1.42u w=0.28u l=0.36u
X50 a_3250_270# a_3050_198# a_3246_116# VSUBS nfet_03v3 ad=0.1288p pd=1.48u as=0.1208p ps=1.42u w=0.28u l=0.36u
X51 a_2648_164# a_3050_198# a_3098_116# VSUBS nfet_03v3 ad=0.1288p pd=1.48u as=0.1208p ps=1.42u w=0.28u l=0.36u
X52 a_1092_932# a_1036_888# a_932_932# VSUBS nfet_03v3 ad=0.23585p pd=1.95u as=0.1378p ps=1.05u w=0.53u l=0.28u
X53 a_4941_1704# a_4885_1894# a_4781_1938# VSUBS nfet_03v3 ad=0.23585p pd=1.95u as=0.1378p ps=1.05u w=0.53u l=0.28u
X54 a_4533_1814# a_4333_1742# a_4529_1660# VSUBS nfet_03v3 ad=0.1288p pd=1.48u as=0.1208p ps=1.42u w=0.28u l=0.36u
X55 a_2648_1708# a_3050_2028# a_3098_1946# VSUBS nfet_03v3 ad=0.1288p pd=1.48u as=0.1208p ps=1.42u w=0.28u l=0.36u
X56 a_3250_556# a_3050_484# a_3246_402# VSUBS nfet_03v3 ad=0.1288p pd=1.48u as=0.1208p ps=1.42u w=0.28u l=0.36u
X57 a_2648_164# a_3050_484# a_3098_402# VSUBS nfet_03v3 ad=0.1288p pd=1.48u as=0.1208p ps=1.42u w=0.28u l=0.36u
X58 a_2648_936# a_2566_888# a_2704_1243# w_2566_1162# pfet_03v3 ad=0.1238p pd=1.44u as=0.3061p ps=2.445u w=0.28u l=0.28u
X59 a_3498_1938# a_3442_1894# a_3354_1938# VSUBS nfet_03v3 ad=0.1378p pd=1.05u as=0.2332p ps=1.94u w=0.53u l=0.28u
X60 a_1365_164# a_1283_116# a_1421_471# w_1283_390# pfet_03v3 ad=0.1238p pd=1.44u as=0.3061p ps=2.445u w=0.28u l=0.28u
X61 a_82_2480# a_0_2432# a_138_2524# VSUBS nfet_03v3 ad=0.3133p pd=2.64u as=0.342p ps=2.21u w=0.45u l=0.28u
X62 a_4781_1938# a_4725_1894# a_4637_1938# VSUBS nfet_03v3 ad=0.1378p pd=1.05u as=0.2332p ps=1.94u w=0.53u l=0.28u
X63 a_3498_394# a_3442_350# a_3354_394# VSUBS nfet_03v3 ad=0.1378p pd=1.05u as=0.2332p ps=1.94u w=0.53u l=0.28u
X64 a_1365_936# a_1767_970# a_1815_888# VSUBS nfet_03v3 ad=0.1288p pd=1.48u as=0.1208p ps=1.42u w=0.28u l=0.36u
X65 a_3987_208# a_3931_164# a_3849_116# VSUBS nfet_03v3 ad=0.342p pd=2.21u as=0.3133p ps=2.64u w=0.45u l=0.28u
X66 a_3931_936# a_3849_888# a_3987_980# VSUBS nfet_03v3 ad=0.3133p pd=2.64u as=0.342p ps=2.21u w=0.45u l=0.28u
X67 a_1421_1752# a_1365_1708# a_1283_1660# VSUBS nfet_03v3 ad=0.342p pd=2.21u as=0.3133p ps=2.64u w=0.45u l=0.28u
X68 a_1092_2476# a_1036_2432# a_932_2476# VSUBS nfet_03v3 ad=0.23585p pd=1.95u as=0.1378p ps=1.05u w=0.53u l=0.28u
X69 a_138_980# a_82_936# a_0_888# VSUBS nfet_03v3 ad=0.342p pd=2.21u as=0.3133p ps=2.64u w=0.45u l=0.28u
X70 a_2375_2476# a_2319_2432# a_2215_2476# VSUBS nfet_03v3 ad=0.23585p pd=1.95u as=0.1378p ps=1.05u w=0.53u l=0.28u
X71 a_2704_1752# a_2648_1708# a_2566_1660# VSUBS nfet_03v3 ad=0.342p pd=2.21u as=0.3133p ps=2.64u w=0.45u l=0.28u
X72 a_2704_471# a_2648_164# a_2566_116# w_2566_390# pfet_03v3 ad=0.3061p pd=2.445u as=0.1238p ps=1.44u w=0.28u l=0.28u
X73 a_138_1752# a_82_1708# a_0_1660# VSUBS nfet_03v3 ad=0.342p pd=2.21u as=0.3133p ps=2.64u w=0.45u l=0.28u
X74 a_3987_2787# a_3931_2480# a_3849_2432# w_3849_2706# pfet_03v3 ad=0.3061p pd=2.445u as=0.1238p ps=1.44u w=0.28u l=0.28u
X75 a_4941_160# a_4885_350# a_4781_394# VSUBS nfet_03v3 ad=0.23585p pd=1.95u as=0.1378p ps=1.05u w=0.53u l=0.28u
X76 a_3931_936# a_4333_1256# a_4381_1174# VSUBS nfet_03v3 ad=0.1288p pd=1.48u as=0.1208p ps=1.42u w=0.28u l=0.36u
X77 a_82_936# a_0_888# a_138_1243# w_0_1162# pfet_03v3 ad=0.1238p pd=1.44u as=0.3061p ps=2.445u w=0.28u l=0.28u
X78 a_1365_164# a_1283_116# a_1421_208# VSUBS nfet_03v3 ad=0.3133p pd=2.64u as=0.342p ps=2.21u w=0.45u l=0.28u
X79 a_4781_160# a_4725_116# a_4637_160# VSUBS nfet_03v3 ad=0.1378p pd=1.05u as=0.2332p ps=1.94u w=0.53u l=0.28u
X80 a_684_270# a_484_198# a_680_116# VSUBS nfet_03v3 ad=0.1288p pd=1.48u as=0.1208p ps=1.42u w=0.28u l=0.36u
X81 a_1421_471# a_1365_164# a_1283_116# w_1283_390# pfet_03v3 ad=0.3061p pd=2.445u as=0.1238p ps=1.44u w=0.28u l=0.28u
X82 a_684_556# a_484_484# a_680_402# VSUBS nfet_03v3 ad=0.1288p pd=1.48u as=0.1208p ps=1.42u w=0.28u l=0.36u
X83 a_3931_2480# a_3849_2432# a_3987_2787# w_3849_2706# pfet_03v3 ad=0.1238p pd=1.44u as=0.3061p ps=2.445u w=0.28u l=0.28u
X84 a_1967_2100# a_1767_2028# a_1963_1946# VSUBS nfet_03v3 ad=0.1288p pd=1.48u as=0.1208p ps=1.42u w=0.28u l=0.36u
X85 a_2215_394# a_2159_350# a_2071_394# VSUBS nfet_03v3 ad=0.1378p pd=1.05u as=0.2332p ps=1.94u w=0.53u l=0.28u
X86 a_82_2480# a_484_2514# a_532_2432# VSUBS nfet_03v3 ad=0.1288p pd=1.48u as=0.1208p ps=1.42u w=0.28u l=0.36u
X87 a_2704_208# a_2648_164# a_2566_116# VSUBS nfet_03v3 ad=0.342p pd=2.21u as=0.3133p ps=2.64u w=0.45u l=0.28u
X88 a_932_394# a_876_350# a_788_394# VSUBS nfet_03v3 ad=0.1378p pd=1.05u as=0.2332p ps=1.94u w=0.53u l=0.28u
X89 a_3250_2586# a_3050_2514# a_3246_2432# VSUBS nfet_03v3 ad=0.1288p pd=1.48u as=0.1208p ps=1.42u w=0.28u l=0.36u
X90 a_4941_1704# a_4885_1660# a_4781_1704# VSUBS nfet_03v3 ad=0.23585p pd=1.95u as=0.1378p ps=1.05u w=0.53u l=0.28u
X91 a_4533_2586# a_4333_2514# a_4529_2432# VSUBS nfet_03v3 ad=0.1288p pd=1.48u as=0.1208p ps=1.42u w=0.28u l=0.36u
X92 a_82_2480# a_484_2800# a_532_2718# VSUBS nfet_03v3 ad=0.1288p pd=1.48u as=0.1208p ps=1.42u w=0.28u l=0.36u
X93 a_2648_1708# a_2566_1660# a_2704_2015# w_2566_1934# pfet_03v3 ad=0.1238p pd=1.44u as=0.3061p ps=2.445u w=0.28u l=0.28u
X94 a_3250_2872# a_3050_2800# a_3246_2718# VSUBS nfet_03v3 ad=0.1288p pd=1.48u as=0.1208p ps=1.42u w=0.28u l=0.36u
X95 a_3498_1704# a_3442_1660# a_3354_1704# VSUBS nfet_03v3 ad=0.1378p pd=1.05u as=0.2332p ps=1.94u w=0.53u l=0.28u
X96 a_3658_2476# a_3602_2666# a_3498_2710# VSUBS nfet_03v3 ad=0.23585p pd=1.95u as=0.1378p ps=1.05u w=0.53u l=0.28u
X97 a_4533_2872# a_4333_2800# a_4529_2718# VSUBS nfet_03v3 ad=0.1288p pd=1.48u as=0.1208p ps=1.42u w=0.28u l=0.36u
X98 a_4781_1704# a_4725_1660# a_4637_1704# VSUBS nfet_03v3 ad=0.1378p pd=1.05u as=0.2332p ps=1.94u w=0.53u l=0.28u
X99 a_3498_160# a_3442_116# a_3354_160# VSUBS nfet_03v3 ad=0.1378p pd=1.05u as=0.2332p ps=1.94u w=0.53u l=0.28u
X100 a_1421_2524# a_1365_2480# a_1283_2432# VSUBS nfet_03v3 ad=0.342p pd=2.21u as=0.3133p ps=2.64u w=0.45u l=0.28u
X101 a_2215_2710# a_2159_2666# a_2071_2710# VSUBS nfet_03v3 ad=0.1378p pd=1.05u as=0.2332p ps=1.94u w=0.53u l=0.28u
X102 a_2648_1708# a_3050_1742# a_3098_1660# VSUBS nfet_03v3 ad=0.1288p pd=1.48u as=0.1208p ps=1.42u w=0.28u l=0.36u
X103 a_1365_936# a_1767_1256# a_1815_1174# VSUBS nfet_03v3 ad=0.1288p pd=1.48u as=0.1208p ps=1.42u w=0.28u l=0.36u
X104 a_2704_2524# a_2648_2480# a_2566_2432# VSUBS nfet_03v3 ad=0.342p pd=2.21u as=0.3133p ps=2.64u w=0.45u l=0.28u
X105 a_932_2710# a_876_2666# a_788_2710# VSUBS nfet_03v3 ad=0.1378p pd=1.05u as=0.2332p ps=1.94u w=0.53u l=0.28u
X106 a_138_2524# a_82_2480# a_0_2432# VSUBS nfet_03v3 ad=0.342p pd=2.21u as=0.3133p ps=2.64u w=0.45u l=0.28u
X107 a_4781_932# a_4725_888# a_4637_932# VSUBS nfet_03v3 ad=0.1378p pd=1.05u as=0.2332p ps=1.94u w=0.53u l=0.28u
X108 a_1421_208# a_1365_164# a_1283_116# VSUBS nfet_03v3 ad=0.342p pd=2.21u as=0.3133p ps=2.64u w=0.45u l=0.28u
X109 a_1421_1243# a_1365_936# a_1283_888# w_1283_1162# pfet_03v3 ad=0.3061p pd=2.445u as=0.1238p ps=1.44u w=0.28u l=0.28u
X110 a_138_471# a_82_164# a_0_116# w_0_390# pfet_03v3 ad=0.3061p pd=2.445u as=0.1238p ps=1.44u w=0.28u l=0.28u
X111 a_2704_1243# a_2648_936# a_2566_888# w_2566_1162# pfet_03v3 ad=0.3061p pd=2.445u as=0.1238p ps=1.44u w=0.28u l=0.28u
X112 a_82_1708# a_0_1660# a_138_2015# w_0_1934# pfet_03v3 ad=0.1238p pd=1.44u as=0.3061p ps=2.445u w=0.28u l=0.28u
X113 a_3931_1708# a_4333_2028# a_4381_1946# VSUBS nfet_03v3 ad=0.1288p pd=1.48u as=0.1208p ps=1.42u w=0.28u l=0.36u
X114 a_4941_160# a_4885_116# a_4781_160# VSUBS nfet_03v3 ad=0.23585p pd=1.95u as=0.1378p ps=1.05u w=0.53u l=0.28u
X115 a_138_1243# a_82_936# a_0_888# w_0_1162# pfet_03v3 ad=0.3061p pd=2.445u as=0.1238p ps=1.44u w=0.28u l=0.28u
X116 a_3931_164# a_3849_116# a_3987_471# w_3849_390# pfet_03v3 ad=0.1238p pd=1.44u as=0.3061p ps=2.445u w=0.28u l=0.28u
X117 a_3931_936# a_4333_970# a_4381_888# VSUBS nfet_03v3 ad=0.1288p pd=1.48u as=0.1208p ps=1.42u w=0.28u l=0.36u
X118 a_1365_2480# a_1283_2432# a_1421_2787# w_1283_2706# pfet_03v3 ad=0.1238p pd=1.44u as=0.3061p ps=2.445u w=0.28u l=0.28u
X119 a_1092_932# a_1036_1122# a_932_1166# VSUBS nfet_03v3 ad=0.23585p pd=1.95u as=0.1378p ps=1.05u w=0.53u l=0.28u
X120 a_3987_1752# a_3931_1708# a_3849_1660# VSUBS nfet_03v3 ad=0.342p pd=2.21u as=0.3133p ps=2.64u w=0.45u l=0.28u
X121 a_4533_1042# a_4333_970# a_4529_888# VSUBS nfet_03v3 ad=0.1288p pd=1.48u as=0.1208p ps=1.42u w=0.28u l=0.36u
X122 a_3658_2476# a_3602_2432# a_3498_2476# VSUBS nfet_03v3 ad=0.23585p pd=1.95u as=0.1378p ps=1.05u w=0.53u l=0.28u
X123 a_2375_932# a_2319_1122# a_2215_1166# VSUBS nfet_03v3 ad=0.23585p pd=1.95u as=0.1378p ps=1.05u w=0.53u l=0.28u
X124 a_684_1328# a_484_1256# a_680_1174# VSUBS nfet_03v3 ad=0.1288p pd=1.48u as=0.1208p ps=1.42u w=0.28u l=0.36u
X125 a_2215_160# a_2159_116# a_2071_160# VSUBS nfet_03v3 ad=0.1378p pd=1.05u as=0.2332p ps=1.94u w=0.53u l=0.28u
X126 a_3498_932# a_3442_888# a_3354_932# VSUBS nfet_03v3 ad=0.1378p pd=1.05u as=0.2332p ps=1.94u w=0.53u l=0.28u
X127 a_2215_2476# a_2159_2432# a_2071_2476# VSUBS nfet_03v3 ad=0.1378p pd=1.05u as=0.2332p ps=1.94u w=0.53u l=0.28u
X128 a_932_160# a_876_116# a_788_160# VSUBS nfet_03v3 ad=0.1378p pd=1.05u as=0.2332p ps=1.94u w=0.53u l=0.28u
X129 a_82_164# a_484_198# a_532_116# VSUBS nfet_03v3 ad=0.1288p pd=1.48u as=0.1208p ps=1.42u w=0.28u l=0.36u
X130 a_932_2476# a_876_2432# a_788_2476# VSUBS nfet_03v3 ad=0.1378p pd=1.05u as=0.2332p ps=1.94u w=0.53u l=0.28u
X131 a_3931_1708# a_3849_1660# a_3987_1752# VSUBS nfet_03v3 ad=0.3133p pd=2.64u as=0.342p ps=2.21u w=0.45u l=0.28u
X132 a_3931_164# a_3849_116# a_3987_208# VSUBS nfet_03v3 ad=0.3133p pd=2.64u as=0.342p ps=2.21u w=0.45u l=0.28u
X133 a_1967_270# a_1767_198# a_1963_116# VSUBS nfet_03v3 ad=0.1288p pd=1.48u as=0.1208p ps=1.42u w=0.28u l=0.36u
X134 a_1967_1814# a_1767_1742# a_1963_1660# VSUBS nfet_03v3 ad=0.1288p pd=1.48u as=0.1208p ps=1.42u w=0.28u l=0.36u
X135 a_82_164# a_484_484# a_532_402# VSUBS nfet_03v3 ad=0.1288p pd=1.48u as=0.1208p ps=1.42u w=0.28u l=0.36u
X136 a_138_208# a_82_164# a_0_116# VSUBS nfet_03v3 ad=0.342p pd=2.21u as=0.3133p ps=2.64u w=0.45u l=0.28u
X137 a_1967_556# a_1767_484# a_1963_402# VSUBS nfet_03v3 ad=0.1288p pd=1.48u as=0.1208p ps=1.42u w=0.28u l=0.36u
X138 a_1365_1708# a_1767_2028# a_1815_1946# VSUBS nfet_03v3 ad=0.1288p pd=1.48u as=0.1208p ps=1.42u w=0.28u l=0.36u
X139 a_4941_932# a_4885_888# a_4781_932# VSUBS nfet_03v3 ad=0.23585p pd=1.95u as=0.1378p ps=1.05u w=0.53u l=0.28u
X140 a_2648_2480# a_3050_2514# a_3098_2432# VSUBS nfet_03v3 ad=0.1288p pd=1.48u as=0.1208p ps=1.42u w=0.28u l=0.36u
X141 a_3250_1042# a_3050_970# a_3246_888# VSUBS nfet_03v3 ad=0.1288p pd=1.48u as=0.1208p ps=1.42u w=0.28u l=0.36u
X142 a_2648_936# a_3050_970# a_3098_888# VSUBS nfet_03v3 ad=0.1288p pd=1.48u as=0.1208p ps=1.42u w=0.28u l=0.36u
X143 a_2648_2480# a_3050_2800# a_3098_2718# VSUBS nfet_03v3 ad=0.1288p pd=1.48u as=0.1208p ps=1.42u w=0.28u l=0.36u
X144 a_1421_2015# a_1365_1708# a_1283_1660# w_1283_1934# pfet_03v3 ad=0.3061p pd=2.445u as=0.1238p ps=1.44u w=0.28u l=0.28u
X145 a_1092_1704# a_1036_1894# a_932_1938# VSUBS nfet_03v3 ad=0.23585p pd=1.95u as=0.1378p ps=1.05u w=0.53u l=0.28u
X146 a_3658_160# a_3602_350# a_3498_394# VSUBS nfet_03v3 ad=0.23585p pd=1.95u as=0.1378p ps=1.05u w=0.53u l=0.28u
X147 a_2375_1704# a_2319_1894# a_2215_1938# VSUBS nfet_03v3 ad=0.23585p pd=1.95u as=0.1378p ps=1.05u w=0.53u l=0.28u
X148 a_2704_2015# a_2648_1708# a_2566_1660# w_2566_1934# pfet_03v3 ad=0.3061p pd=2.445u as=0.1238p ps=1.44u w=0.28u l=0.28u
X149 a_138_2015# a_82_1708# a_0_1660# w_0_1934# pfet_03v3 ad=0.3061p pd=2.445u as=0.1238p ps=1.44u w=0.28u l=0.28u
X150 a_4941_2476# a_4885_2666# a_4781_2710# VSUBS nfet_03v3 ad=0.23585p pd=1.95u as=0.1378p ps=1.05u w=0.53u l=0.28u
X151 a_2215_932# a_2159_888# a_2071_932# VSUBS nfet_03v3 ad=0.1378p pd=1.05u as=0.2332p ps=1.94u w=0.53u l=0.28u
X152 a_932_932# a_876_888# a_788_932# VSUBS nfet_03v3 ad=0.1378p pd=1.05u as=0.2332p ps=1.94u w=0.53u l=0.28u
X153 a_1365_1708# a_1283_1660# a_1421_1752# VSUBS nfet_03v3 ad=0.3133p pd=2.64u as=0.342p ps=2.21u w=0.45u l=0.28u
X154 a_3498_2710# a_3442_2666# a_3354_2710# VSUBS nfet_03v3 ad=0.1378p pd=1.05u as=0.2332p ps=1.94u w=0.53u l=0.28u
X155 a_3987_2524# a_3931_2480# a_3849_2432# VSUBS nfet_03v3 ad=0.342p pd=2.21u as=0.3133p ps=2.64u w=0.45u l=0.28u
X156 a_3931_1708# a_4333_1742# a_4381_1660# VSUBS nfet_03v3 ad=0.1288p pd=1.48u as=0.1208p ps=1.42u w=0.28u l=0.36u
X157 a_4781_2710# a_4725_2666# a_4637_2710# VSUBS nfet_03v3 ad=0.1378p pd=1.05u as=0.2332p ps=1.94u w=0.53u l=0.28u
X158 a_684_2100# a_484_2028# a_680_1946# VSUBS nfet_03v3 ad=0.1288p pd=1.48u as=0.1208p ps=1.42u w=0.28u l=0.36u
X159 a_82_936# a_0_888# a_138_980# VSUBS nfet_03v3 ad=0.3133p pd=2.64u as=0.342p ps=2.21u w=0.45u l=0.28u
X160 a_3931_2480# a_3849_2432# a_3987_2524# VSUBS nfet_03v3 ad=0.3133p pd=2.64u as=0.342p ps=2.21u w=0.45u l=0.28u
X161 a_3987_1243# a_3931_936# a_3849_888# w_3849_1162# pfet_03v3 ad=0.3061p pd=2.445u as=0.1238p ps=1.44u w=0.28u l=0.28u
X162 a_2648_2480# a_2566_2432# a_2704_2787# w_2566_2706# pfet_03v3 ad=0.1238p pd=1.44u as=0.3061p ps=2.445u w=0.28u l=0.28u
X163 a_684_1042# a_484_970# a_680_888# VSUBS nfet_03v3 ad=0.1288p pd=1.48u as=0.1208p ps=1.42u w=0.28u l=0.36u
X164 a_1967_2586# a_1767_2514# a_1963_2432# VSUBS nfet_03v3 ad=0.1288p pd=1.48u as=0.1208p ps=1.42u w=0.28u l=0.36u
X165 a_3250_1328# a_3050_1256# a_3246_1174# VSUBS nfet_03v3 ad=0.1288p pd=1.48u as=0.1208p ps=1.42u w=0.28u l=0.36u
X166 a_82_936# a_484_1256# a_532_1174# VSUBS nfet_03v3 ad=0.1288p pd=1.48u as=0.1208p ps=1.42u w=0.28u l=0.36u
X167 a_1967_2872# a_1767_2800# a_1963_2718# VSUBS nfet_03v3 ad=0.1288p pd=1.48u as=0.1208p ps=1.42u w=0.28u l=0.36u
X168 a_4941_2476# a_4885_2432# a_4781_2476# VSUBS nfet_03v3 ad=0.23585p pd=1.95u as=0.1378p ps=1.05u w=0.53u l=0.28u
X169 a_2375_160# a_2319_350# a_2215_394# VSUBS nfet_03v3 ad=0.23585p pd=1.95u as=0.1378p ps=1.05u w=0.53u l=0.28u
X170 a_1365_164# a_1767_198# a_1815_116# VSUBS nfet_03v3 ad=0.1288p pd=1.48u as=0.1208p ps=1.42u w=0.28u l=0.36u
X171 a_4533_1328# a_4333_1256# a_4529_1174# VSUBS nfet_03v3 ad=0.1288p pd=1.48u as=0.1208p ps=1.42u w=0.28u l=0.36u
X172 a_3658_932# a_3602_1122# a_3498_1166# VSUBS nfet_03v3 ad=0.23585p pd=1.95u as=0.1378p ps=1.05u w=0.53u l=0.28u
X173 a_3931_936# a_3849_888# a_3987_1243# w_3849_1162# pfet_03v3 ad=0.1238p pd=1.44u as=0.3061p ps=2.445u w=0.28u l=0.28u
X174 a_3498_2476# a_3442_2432# a_3354_2476# VSUBS nfet_03v3 ad=0.1378p pd=1.05u as=0.2332p ps=1.94u w=0.53u l=0.28u
X175 a_1365_164# a_1767_484# a_1815_402# VSUBS nfet_03v3 ad=0.1288p pd=1.48u as=0.1208p ps=1.42u w=0.28u l=0.36u
X176 a_2215_1166# a_2159_1122# a_2071_1166# VSUBS nfet_03v3 ad=0.1378p pd=1.05u as=0.2332p ps=1.94u w=0.53u l=0.28u
X177 a_4781_2476# a_4725_2432# a_4637_2476# VSUBS nfet_03v3 ad=0.1378p pd=1.05u as=0.2332p ps=1.94u w=0.53u l=0.28u
X178 a_1092_1704# a_1036_1660# a_932_1704# VSUBS nfet_03v3 ad=0.23585p pd=1.95u as=0.1378p ps=1.05u w=0.53u l=0.28u
X179 a_3658_160# a_3602_116# a_3498_160# VSUBS nfet_03v3 ad=0.23585p pd=1.95u as=0.1378p ps=1.05u w=0.53u l=0.28u
X180 a_1365_1708# a_1767_1742# a_1815_1660# VSUBS nfet_03v3 ad=0.1288p pd=1.48u as=0.1208p ps=1.42u w=0.28u l=0.36u
X181 a_2375_1704# a_2319_1660# a_2215_1704# VSUBS nfet_03v3 ad=0.23585p pd=1.95u as=0.1378p ps=1.05u w=0.53u l=0.28u
X182 a_2648_936# a_2566_888# a_2704_980# VSUBS nfet_03v3 ad=0.3133p pd=2.64u as=0.342p ps=2.21u w=0.45u l=0.28u
X183 a_932_1166# a_876_1122# a_788_1166# VSUBS nfet_03v3 ad=0.1378p pd=1.05u as=0.2332p ps=1.94u w=0.53u l=0.28u
X184 a_82_2480# a_0_2432# a_138_2787# w_0_2706# pfet_03v3 ad=0.1238p pd=1.44u as=0.3061p ps=2.445u w=0.28u l=0.28u
X185 a_1365_2480# a_1283_2432# a_1421_2524# VSUBS nfet_03v3 ad=0.3133p pd=2.64u as=0.342p ps=2.21u w=0.45u l=0.28u
X186 a_3931_2480# a_4333_2514# a_4381_2432# VSUBS nfet_03v3 ad=0.1288p pd=1.48u as=0.1208p ps=1.42u w=0.28u l=0.36u
X187 a_1092_160# a_1036_350# a_932_394# VSUBS nfet_03v3 ad=0.23585p pd=1.95u as=0.1378p ps=1.05u w=0.53u l=0.28u
X188 a_3931_2480# a_4333_2800# a_4381_2718# VSUBS nfet_03v3 ad=0.1288p pd=1.48u as=0.1208p ps=1.42u w=0.28u l=0.36u
X189 a_3987_980# a_3931_936# a_3849_888# VSUBS nfet_03v3 ad=0.342p pd=2.21u as=0.3133p ps=2.64u w=0.45u l=0.28u
X190 a_3987_2015# a_3931_1708# a_3849_1660# w_3849_1934# pfet_03v3 ad=0.3061p pd=2.445u as=0.1238p ps=1.44u w=0.28u l=0.28u
X191 a_3658_1704# a_3602_1894# a_3498_1938# VSUBS nfet_03v3 ad=0.23585p pd=1.95u as=0.1378p ps=1.05u w=0.53u l=0.28u
.ends

.subckt gf180mcu_as_sc_mcu7t3v3__nand2_2 VDD VSS Y B A VNW VPW
X0 VDD A Y VNW pfet_03v3 ad=0.3588p pd=1.9u as=0.3588p ps=1.9u w=1.38u l=0.28u
X1 VSS A a_28_68# VPW nfet_03v3 ad=0.26p pd=1.52u as=0.44p ps=2.88u w=1u l=0.28u
X2 Y B VDD VNW pfet_03v3 ad=0.3588p pd=1.9u as=0.3588p ps=1.9u w=1.38u l=0.28u
X3 a_28_68# B Y VPW nfet_03v3 ad=0.515p pd=3.03u as=0.26p ps=1.52u w=1u l=0.28u
X4 VDD B Y VNW pfet_03v3 ad=0.7176p pd=3.8u as=0.3588p ps=1.9u w=1.38u l=0.28u
X5 Y B a_28_68# VPW nfet_03v3 ad=0.26p pd=1.52u as=0.26p ps=1.52u w=1u l=0.28u
X6 Y A VDD VNW pfet_03v3 ad=0.3588p pd=1.9u as=0.6072p ps=3.64u w=1.38u l=0.28u
X7 a_28_68# A VSS VPW nfet_03v3 ad=0.26p pd=1.52u as=0.26p ps=1.52u w=1u l=0.28u
.ends

.subckt gf180mcu_as_sc_mcu7t3v3__nor2_2 VDD VSS Y B A VNW VPW
X0 a_28_440# A VDD VNW pfet_03v3 ad=0.3588p pd=1.9u as=0.3588p ps=1.9u w=1.38u l=0.28u
X1 Y A VSS VPW nfet_03v3 ad=0.26p pd=1.52u as=0.44p ps=2.88u w=1u l=0.28u
X2 Y B a_28_440# VNW pfet_03v3 ad=0.3588p pd=1.9u as=0.3588p ps=1.9u w=1.38u l=0.28u
X3 VSS B Y VPW nfet_03v3 ad=0.515p pd=3.03u as=0.26p ps=1.52u w=1u l=0.28u
X4 a_28_440# B Y VNW pfet_03v3 ad=0.7176p pd=3.8u as=0.3588p ps=1.9u w=1.38u l=0.28u
X5 Y B VSS VPW nfet_03v3 ad=0.26p pd=1.52u as=0.26p ps=1.52u w=1u l=0.28u
X6 VDD A a_28_440# VNW pfet_03v3 ad=0.3588p pd=1.9u as=0.6072p ps=3.64u w=1.38u l=0.28u
X7 VSS A Y VPW nfet_03v3 ad=0.26p pd=1.52u as=0.26p ps=1.52u w=1u l=0.28u
.ends

.subckt gf180mcu_as_sc_mcu7t3v3__nand3_2 VDD VSS A B C Y VNW VPW
X0 VDD A Y VNW pfet_03v3 ad=0.3588p pd=1.9u as=0.3588p ps=1.9u w=1.38u l=0.28u
X1 VSS A a_28_68# VPW nfet_03v3 ad=0.26p pd=1.52u as=0.44p ps=2.88u w=1u l=0.28u
X2 VDD C Y VNW pfet_03v3 ad=0.621p pd=3.66u as=0.3588p ps=1.9u w=1.38u l=0.28u
X3 a_492_68# C Y VPW nfet_03v3 ad=0.45p pd=2.9u as=0.26p ps=1.52u w=1u l=0.28u
X4 Y B VDD VNW pfet_03v3 ad=0.3588p pd=1.9u as=0.3588p ps=1.9u w=1.38u l=0.28u
X5 a_28_68# B a_492_68# VPW nfet_03v3 ad=0.44p pd=2.88u as=0.26p ps=1.52u w=1u l=0.28u