* NGSPICE file created from gf180mcu_3v3_12t_2r2w_sram_512x8.ext - technology: gf180mcuD

.subckt gf180mcu_3v3_12t_2r2w_sram_4x4_tile c0_w0_bl c0_w0_br c0_w1_bl
+ c0_w1_br c0_r0_rbl c0_r1_rbl c1_w0_bl c1_w0_br c1_w1_bl c1_w1_br c1_r0_rbl c1_r1_rbl
+ c2_w0_bl c2_w0_br c2_w1_bl c2_w1_br c2_r0_rbl c2_r1_rbl c3_w0_bl c3_w0_br c3_w1_bl
+ c3_w1_br c3_r0_rbl c3_r1_rbl r0_w0_wl r0_w1_wl r0_r0_rwl r0_r1_rwl r1_w0_wl r1_w1_wl
+ r1_r0_rwl r1_r1_rwl r2_w0_wl r2_w1_wl r2_r0_rwl r2_r1_rwl r3_w0_wl r3_w1_wl r3_r0_rwl
+ r3_r1_rwl VDD VSS VSUBS
X0 a_0_1660# r2_w0_wl c0_w0_br VSUBS nfet_03v3 ad=0.1288p pd=1.48u as=0.1208p ps=1.42u w=0.28u l=0.36u
X1 a_1365_936# a_1283_888# VDD w_1283_1162# pfet_03v3 ad=0.1238p pd=1.44u as=0.3061p ps=2.445u w=0.28u l=0.28u
X2 a_2215_1938# r2_r1_rwl c1_r1_rbl VSUBS nfet_03v3 ad=0.1378p pd=1.05u as=0.2332p ps=1.94u w=0.53u l=0.28u
X3 a_82_1708# r2_w1_wl c0_w1_bl VSUBS nfet_03v3 ad=0.1288p pd=1.48u as=0.1208p ps=1.42u w=0.28u l=0.36u
X4 a_2648_1708# a_2566_1660# VSS VSUBS nfet_03v3 ad=0.3133p pd=2.64u as=0.342p ps=2.21u w=0.45u l=0.28u
X5 VSS a_2648_936# a_3498_932# VSUBS nfet_03v3 ad=0.23585p pd=1.95u as=0.1378p ps=1.05u w=0.53u l=0.28u
X6 a_932_1938# r2_r1_rwl c0_r1_rbl VSUBS nfet_03v3 ad=0.1378p pd=1.05u as=0.2332p ps=1.94u w=0.53u l=0.28u
X7 a_2566_1660# r2_w1_wl c2_w1_br VSUBS nfet_03v3 ad=0.1288p pd=1.48u as=0.1208p ps=1.42u w=0.28u l=0.36u
X8 VSS a_1365_164# a_2215_160# VSUBS nfet_03v3 ad=0.23585p pd=1.95u as=0.1378p ps=1.05u w=0.53u l=0.28u
X9 a_1365_936# a_1283_888# VSS VSUBS nfet_03v3 ad=0.3133p pd=2.64u as=0.342p ps=2.21u w=0.45u l=0.28u
X10 a_3849_1660# r2_w1_wl c3_w1_br VSUBS nfet_03v3 ad=0.1288p pd=1.48u as=0.1208p ps=1.42u w=0.28u l=0.36u
X11 a_82_164# a_0_116# VDD w_0_390# pfet_03v3 ad=0.1238p pd=1.44u as=0.3061p ps=2.445u w=0.28u l=0.28u
X12 a_82_936# r1_w0_wl c0_w0_bl VSUBS nfet_03v3 ad=0.1288p pd=1.48u as=0.1208p ps=1.42u w=0.28u l=0.36u
X13 a_3931_1708# a_3849_1660# VDD w_3849_1934# pfet_03v3 ad=0.1238p pd=1.44u as=0.3061p ps=2.445u w=0.28u l=0.28u
X14 a_1283_888# r1_w0_wl c1_w0_br VSUBS nfet_03v3 ad=0.1288p pd=1.48u as=0.1208p ps=1.42u w=0.28u l=0.36u
X15 VDD a_1365_2480# a_1283_2432# w_1283_2706# pfet_03v3 ad=0.3061p pd=2.445u as=0.1238p ps=1.44u w=0.28u l=0.28u
X16 a_1365_2480# r3_w0_wl c1_w0_bl VSUBS nfet_03v3 ad=0.1288p pd=1.48u as=0.1208p ps=1.42u w=0.28u l=0.36u
X17 VDD a_2648_2480# a_2566_2432# w_2566_2706# pfet_03v3 ad=0.3061p pd=2.445u as=0.1238p ps=1.44u w=0.28u l=0.28u
X18 VDD a_82_2480# a_0_2432# w_0_2706# pfet_03v3 ad=0.3061p pd=2.445u as=0.1238p ps=1.44u w=0.28u l=0.28u
X19 a_2648_936# r1_w1_wl c2_w1_bl VSUBS nfet_03v3 ad=0.1288p pd=1.48u as=0.1208p ps=1.42u w=0.28u l=0.36u
X20 a_1365_2480# r3_w1_wl c1_w1_bl VSUBS nfet_03v3 ad=0.1288p pd=1.48u as=0.1208p ps=1.42u w=0.28u l=0.36u
X21 VSS a_2648_936# a_2566_888# VSUBS nfet_03v3 ad=0.342p pd=2.21u as=0.3133p ps=2.64u w=0.45u l=0.28u
X22 a_82_1708# a_0_1660# VSS VSUBS nfet_03v3 ad=0.3133p pd=2.64u as=0.342p ps=2.21u w=0.45u l=0.28u
X23 a_3931_164# r0_w0_wl c3_w0_bl VSUBS nfet_03v3 ad=0.1288p pd=1.48u as=0.1208p ps=1.42u w=0.28u l=0.36u
X24 VSS a_82_164# a_932_160# VSUBS nfet_03v3 ad=0.23585p pd=1.95u as=0.1378p ps=1.05u w=0.53u l=0.28u
X25 a_82_164# a_0_116# VSS VSUBS nfet_03v3 ad=0.3133p pd=2.64u as=0.342p ps=2.21u w=0.45u l=0.28u
X26 VSS a_3931_936# a_4781_1166# VSUBS nfet_03v3 ad=0.23585p pd=1.95u as=0.1378p ps=1.05u w=0.53u l=0.28u
X27 a_3931_164# r0_w1_wl c3_w1_bl VSUBS nfet_03v3 ad=0.1288p pd=1.48u as=0.1208p ps=1.42u w=0.28u l=0.36u
X28 a_2648_164# a_2566_116# VDD w_2566_390# pfet_03v3 ad=0.1238p pd=1.44u as=0.3061p ps=2.445u w=0.28u l=0.28u
X29 a_3498_1166# r1_r1_rwl c2_r1_rbl VSUBS nfet_03v3 ad=0.1378p pd=1.05u as=0.2332p ps=1.94u w=0.53u l=0.28u
X30 a_3849_116# r0_w0_wl c3_w0_br VSUBS nfet_03v3 ad=0.1288p pd=1.48u as=0.1208p ps=1.42u w=0.28u l=0.36u
X31 VSS a_1365_936# a_2215_932# VSUBS nfet_03v3 ad=0.23585p pd=1.95u as=0.1378p ps=1.05u w=0.53u l=0.28u
X32 a_4781_1166# r1_r1_rwl c3_r1_rbl VSUBS nfet_03v3 ad=0.1378p pd=1.05u as=0.2332p ps=1.94u w=0.53u l=0.28u
X33 VSS a_2648_1708# a_3498_1704# VSUBS nfet_03v3 ad=0.23585p pd=1.95u as=0.1378p ps=1.05u w=0.53u l=0.28u
X34 a_0_2432# r3_w0_wl c0_w0_br VSUBS nfet_03v3 ad=0.1288p pd=1.48u as=0.1208p ps=1.42u w=0.28u l=0.36u
X35 a_1365_1708# a_1283_1660# VDD w_1283_1934# pfet_03v3 ad=0.1238p pd=1.44u as=0.3061p ps=2.445u w=0.28u l=0.28u
X36 a_3849_116# r0_w1_wl c3_w1_br VSUBS nfet_03v3 ad=0.1288p pd=1.48u as=0.1208p ps=1.42u w=0.28u l=0.36u
X37 VSS a_82_2480# a_932_2710# VSUBS nfet_03v3 ad=0.23585p pd=1.95u as=0.1378p ps=1.05u w=0.53u l=0.28u
X38 a_2215_1704# r2_r0_rwl c1_r0_rbl VSUBS nfet_03v3 ad=0.1378p pd=1.05u as=0.2332p ps=1.94u w=0.53u l=0.28u
X39 VDD a_3931_164# a_3849_116# w_3849_390# pfet_03v3 ad=0.3061p pd=2.445u as=0.1238p ps=1.44u w=0.28u l=0.28u
X40 a_4781_394# r0_r1_rwl c3_r1_rbl VSUBS nfet_03v3 ad=0.1378p pd=1.05u as=0.2332p ps=1.94u w=0.53u l=0.28u
X41 VSS a_1365_936# a_1283_888# VSUBS nfet_03v3 ad=0.342p pd=2.21u as=0.3133p ps=2.64u w=0.45u l=0.28u
X42 a_0_2432# r3_w1_wl c0_w1_br VSUBS nfet_03v3 ad=0.1288p pd=1.48u as=0.1208p ps=1.42u w=0.28u l=0.36u
X43 VSS a_1365_2480# a_2215_2710# VSUBS nfet_03v3 ad=0.23585p pd=1.95u as=0.1378p ps=1.05u w=0.53u l=0.28u
X44 a_2648_2480# a_2566_2432# VSS VSUBS nfet_03v3 ad=0.3133p pd=2.64u as=0.342p ps=2.21u w=0.45u l=0.28u
X45 a_932_1704# r2_r0_rwl c0_r0_rbl VSUBS nfet_03v3 ad=0.1378p pd=1.05u as=0.2332p ps=1.94u w=0.53u l=0.28u
X46 a_2648_164# a_2566_116# VSS VSUBS nfet_03v3 ad=0.3133p pd=2.64u as=0.342p ps=2.21u w=0.45u l=0.28u
X47 a_1283_888# r1_w1_wl c1_w1_br VSUBS nfet_03v3 ad=0.1288p pd=1.48u as=0.1208p ps=1.42u w=0.28u l=0.36u
X48 a_82_1708# r2_w0_wl c0_w0_bl VSUBS nfet_03v3 ad=0.1288p pd=1.48u as=0.1208p ps=1.42u w=0.28u l=0.36u
X49 a_2566_1660# r2_w0_wl c2_w0_br VSUBS nfet_03v3 ad=0.1288p pd=1.48u as=0.1208p ps=1.42u w=0.28u l=0.36u
X50 a_2566_116# r0_w0_wl c2_w0_br VSUBS nfet_03v3 ad=0.1288p pd=1.48u as=0.1208p ps=1.42u w=0.28u l=0.36u
X51 a_2648_164# r0_w0_wl c2_w0_bl VSUBS nfet_03v3 ad=0.1288p pd=1.48u as=0.1208p ps=1.42u w=0.28u l=0.36u
X52 VSS a_82_936# a_932_932# VSUBS nfet_03v3 ad=0.23585p pd=1.95u as=0.1378p ps=1.05u w=0.53u l=0.28u
X53 VSS a_3931_1708# a_4781_1938# VSUBS nfet_03v3 ad=0.23585p pd=1.95u as=0.1378p ps=1.05u w=0.53u l=0.28u
X54 a_3849_1660# r2_w0_wl c3_w0_br VSUBS nfet_03v3 ad=0.1288p pd=1.48u as=0.1208p ps=1.42u w=0.28u l=0.36u
X55 a_2648_1708# r2_w1_wl c2_w1_bl VSUBS nfet_03v3 ad=0.1288p pd=1.48u as=0.1208p ps=1.42u w=0.28u l=0.36u
X56 a_2566_116# r0_w1_wl c2_w1_br VSUBS nfet_03v3 ad=0.1288p pd=1.48u as=0.1208p ps=1.42u w=0.28u l=0.36u
X57 a_2648_164# r0_w1_wl c2_w1_bl VSUBS nfet_03v3 ad=0.1288p pd=1.48u as=0.1208p ps=1.42u w=0.28u l=0.36u
X58 a_2648_936# a_2566_888# VDD w_2566_1162# pfet_03v3 ad=0.1238p pd=1.44u as=0.3061p ps=2.445u w=0.28u l=0.28u
X59 a_3498_1938# r2_r1_rwl c2_r1_rbl VSUBS nfet_03v3 ad=0.1378p pd=1.05u as=0.2332p ps=1.94u w=0.53u l=0.28u
X60 a_1365_164# a_1283_116# VDD w_1283_390# pfet_03v3 ad=0.1238p pd=1.44u as=0.3061p ps=2.445u w=0.28u l=0.28u
X61 a_82_2480# a_0_2432# VSS VSUBS nfet_03v3 ad=0.3133p pd=2.64u as=0.342p ps=2.21u w=0.45u l=0.28u
X62 a_4781_1938# r2_r1_rwl c3_r1_rbl VSUBS nfet_03v3 ad=0.1378p pd=1.05u as=0.2332p ps=1.94u w=0.53u l=0.28u
X63 a_3498_394# r0_r1_rwl c2_r1_rbl VSUBS nfet_03v3 ad=0.1378p pd=1.05u as=0.2332p ps=1.94u w=0.53u l=0.28u
X64 a_1365_936# r1_w0_wl c1_w0_bl VSUBS nfet_03v3 ad=0.1288p pd=1.48u as=0.1208p ps=1.42u w=0.28u l=0.36u
X65 VSS a_3931_164# a_3849_116# VSUBS nfet_03v3 ad=0.342p pd=2.21u as=0.3133p ps=2.64u w=0.45u l=0.28u
X66 a_3931_936# a_3849_888# VSS VSUBS nfet_03v3 ad=0.3133p pd=2.64u as=0.342p ps=2.21u w=0.45u l=0.28u
X67 VSS a_1365_1708# a_1283_1660# VSUBS nfet_03v3 ad=0.342p pd=2.21u as=0.3133p ps=2.64u w=0.45u l=0.28u
X68 VSS a_82_2480# a_932_2476# VSUBS nfet_03v3 ad=0.23585p pd=1.95u as=0.1378p ps=1.05u w=0.53u l=0.28u
X69 VSS a_82_936# a_0_888# VSUBS nfet_03v3 ad=0.342p pd=2.21u as=0.3133p ps=2.64u w=0.45u l=0.28u
X70 VSS a_1365_2480# a_2215_2476# VSUBS nfet_03v3 ad=0.23585p pd=1.95u as=0.1378p ps=1.05u w=0.53u l=0.28u
X71 VSS a_2648_1708# a_2566_1660# VSUBS nfet_03v3 ad=0.342p pd=2.21u as=0.3133p ps=2.64u w=0.45u l=0.28u
X72 VDD a_2648_164# a_2566_116# w_2566_390# pfet_03v3 ad=0.3061p pd=2.445u as=0.1238p ps=1.44u w=0.28u l=0.28u
X73 VSS a_82_1708# a_0_1660# VSUBS nfet_03v3 ad=0.342p pd=2.21u as=0.3133p ps=2.64u w=0.45u l=0.28u
X74 VDD a_3931_2480# a_3849_2432# w_3849_2706# pfet_03v3 ad=0.3061p pd=2.445u as=0.1238p ps=1.44u w=0.28u l=0.28u
X75 VSS a_3931_164# a_4781_394# VSUBS nfet_03v3 ad=0.23585p pd=1.95u as=0.1378p ps=1.05u w=0.53u l=0.28u
X76 a_3931_936# r1_w1_wl c3_w1_bl VSUBS nfet_03v3 ad=0.1288p pd=1.48u as=0.1208p ps=1.42u w=0.28u l=0.36u
X77 a_82_936# a_0_888# VDD w_0_1162# pfet_03v3 ad=0.1238p pd=1.44u as=0.3061p ps=2.445u w=0.28u l=0.28u
X78 a_1365_164# a_1283_116# VSS VSUBS nfet_03v3 ad=0.3133p pd=2.64u as=0.342p ps=2.21u w=0.45u l=0.28u
X79 a_4781_160# r0_r0_rwl c3_r0_rbl VSUBS nfet_03v3 ad=0.1378p pd=1.05u as=0.2332p ps=1.94u w=0.53u l=0.28u
X80 a_0_116# r0_w0_wl c0_w0_br VSUBS nfet_03v3 ad=0.1288p pd=1.48u as=0.1208p ps=1.42u w=0.28u l=0.36u
X81 VDD a_1365_164# a_1283_116# w_1283_390# pfet_03v3 ad=0.3061p pd=2.445u as=0.1238p ps=1.44u w=0.28u l=0.28u
X82 a_0_116# r0_w1_wl c0_w1_br VSUBS nfet_03v3 ad=0.1288p pd=1.48u as=0.1208p ps=1.42u w=0.28u l=0.36u
X83 a_3931_2480# a_3849_2432# VDD w_3849_2706# pfet_03v3 ad=0.1238p pd=1.44u as=0.3061p ps=2.445u w=0.28u l=0.28u
X84 a_1283_1660# r2_w1_wl c1_w1_br VSUBS nfet_03v3 ad=0.1288p pd=1.48u as=0.1208p ps=1.42u w=0.28u l=0.36u
X85 a_2215_394# r0_r1_rwl c1_r1_rbl VSUBS nfet_03v3 ad=0.1378p pd=1.05u as=0.2332p ps=1.94u w=0.53u l=0.28u
X86 a_82_2480# r3_w0_wl c0_w0_bl VSUBS nfet_03v3 ad=0.1288p pd=1.48u as=0.1208p ps=1.42u w=0.28u l=0.36u
X87 VSS a_2648_164# a_2566_116# VSUBS nfet_03v3 ad=0.342p pd=2.21u as=0.3133p ps=2.64u w=0.45u l=0.28u
X88 a_932_394# r0_r1_rwl c0_r1_rbl VSUBS nfet_03v3 ad=0.1378p pd=1.05u as=0.2332p ps=1.94u w=0.53u l=0.28u
X89 a_2566_2432# r3_w0_wl c2_w0_br VSUBS nfet_03v3 ad=0.1288p pd=1.48u as=0.1208p ps=1.42u w=0.28u l=0.36u
X90 VSS a_3931_1708# a_4781_1704# VSUBS nfet_03v3 ad=0.23585p pd=1.95u as=0.1378p ps=1.05u w=0.53u l=0.28u
X91 a_3849_2432# r3_w0_wl c3_w0_br VSUBS nfet_03v3 ad=0.1288p pd=1.48u as=0.1208p ps=1.42u w=0.28u l=0.36u
X92 a_82_2480# r3_w1_wl c0_w1_bl VSUBS nfet_03v3 ad=0.1288p pd=1.48u as=0.1208p ps=1.42u w=0.28u l=0.36u
X93 a_2648_1708# a_2566_1660# VDD w_2566_1934# pfet_03v3 ad=0.1238p pd=1.44u as=0.3061p ps=2.445u w=0.28u l=0.28u
X94 a_2566_2432# r3_w1_wl c2_w1_br VSUBS nfet_03v3 ad=0.1288p pd=1.48u as=0.1208p ps=1.42u w=0.28u l=0.36u
X95 a_3498_1704# r2_r0_rwl c2_r0_rbl VSUBS nfet_03v3 ad=0.1378p pd=1.05u as=0.2332p ps=1.94u w=0.53u l=0.28u
X96 VSS a_2648_2480# a_3498_2710# VSUBS nfet_03v3 ad=0.23585p pd=1.95u as=0.1378p ps=1.05u w=0.53u l=0.28u
X97 a_3849_2432# r3_w1_wl c3_w1_br VSUBS nfet_03v3 ad=0.1288p pd=1.48u as=0.1208p ps=1.42u w=0.28u l=0.36u
X98 a_4781_1704# r2_r0_rwl c3_r0_rbl VSUBS nfet_03v3 ad=0.1378p pd=1.05u as=0.2332p ps=1.94u w=0.53u l=0.28u
X99 a_3498_160# r0_r0_rwl c2_r0_rbl VSUBS nfet_03v3 ad=0.1378p pd=1.05u as=0.2332p ps=1.94u w=0.53u l=0.28u
X100 VSS a_1365_2480# a_1283_2432# VSUBS nfet_03v3 ad=0.342p pd=2.21u as=0.3133p ps=2.64u w=0.45u l=0.28u
X101 a_2215_2710# r3_r1_rwl c1_r1_rbl VSUBS nfet_03v3 ad=0.1378p pd=1.05u as=0.2332p ps=1.94u w=0.53u l=0.28u
X102 a_2648_1708# r2_w0_wl c2_w0_bl VSUBS nfet_03v3 ad=0.1288p pd=1.48u as=0.1208p ps=1.42u w=0.28u l=0.36u
X103 a_1365_936# r1_w1_wl c1_w1_bl VSUBS nfet_03v3 ad=0.1288p pd=1.48u as=0.1208p ps=1.42u w=0.28u l=0.36u
X104 VSS a_2648_2480# a_2566_2432# VSUBS nfet_03v3 ad=0.342p pd=2.21u as=0.3133p ps=2.64u w=0.45u l=0.28u
X105 a_932_2710# r3_r1_rwl c0_r1_rbl VSUBS nfet_03v3 ad=0.1378p pd=1.05u as=0.2332p ps=1.94u w=0.53u l=0.28u
X106 VSS a_82_2480# a_0_2432# VSUBS nfet_03v3 ad=0.342p pd=2.21u as=0.3133p ps=2.64u w=0.45u l=0.28u
X107 a_4781_932# r1_r0_rwl c3_r0_rbl VSUBS nfet_03v3 ad=0.1378p pd=1.05u as=0.2332p ps=1.94u w=0.53u l=0.28u
X108 VSS a_1365_164# a_1283_116# VSUBS nfet_03v3 ad=0.342p pd=2.21u as=0.3133p ps=2.64u w=0.45u l=0.28u
X109 VDD a_1365_936# a_1283_888# w_1283_1162# pfet_03v3 ad=0.3061p pd=2.445u as=0.1238p ps=1.44u w=0.28u l=0.28u
X110 VDD a_82_164# a_0_116# w_0_390# pfet_03v3 ad=0.3061p pd=2.445u as=0.1238p ps=1.44u w=0.28u l=0.28u
X111 VDD a_2648_936# a_2566_888# w_2566_1162# pfet_03v3 ad=0.3061p pd=2.445u as=0.1238p ps=1.44u w=0.28u l=0.28u
X112 a_82_1708# a_0_1660# VDD w_0_1934# pfet_03v3 ad=0.1238p pd=1.44u as=0.3061p ps=2.445u w=0.28u l=0.28u
X113 a_3931_1708# r2_w1_wl c3_w1_bl VSUBS nfet_03v3 ad=0.1288p pd=1.48u as=0.1208p ps=1.42u w=0.28u l=0.36u
X114 VSS a_3931_164# a_4781_160# VSUBS nfet_03v3 ad=0.23585p pd=1.95u as=0.1378p ps=1.05u w=0.53u l=0.28u
X115 VDD a_82_936# a_0_888# w_0_1162# pfet_03v3 ad=0.3061p pd=2.445u as=0.1238p ps=1.44u w=0.28u l=0.28u
X116 a_3931_164# a_3849_116# VDD w_3849_390# pfet_03v3 ad=0.1238p pd=1.44u as=0.3061p ps=2.445u w=0.28u l=0.28u
X117 a_3931_936# r1_w0_wl c3_w0_bl VSUBS nfet_03v3 ad=0.1288p pd=1.48u as=0.1208p ps=1.42u w=0.28u l=0.36u
X118 a_1365_2480# a_1283_2432# VDD w_1283_2706# pfet_03v3 ad=0.1238p pd=1.44u as=0.3061p ps=2.445u w=0.28u l=0.28u
X119 VSS a_82_936# a_932_1166# VSUBS nfet_03v3 ad=0.23585p pd=1.95u as=0.1378p ps=1.05u w=0.53u l=0.28u
X120 VSS a_3931_1708# a_3849_1660# VSUBS nfet_03v3 ad=0.342p pd=2.21u as=0.3133p ps=2.64u w=0.45u l=0.28u
X121 a_3849_888# r1_w0_wl c3_w0_br VSUBS nfet_03v3 ad=0.1288p pd=1.48u as=0.1208p ps=1.42u w=0.28u l=0.36u
X122 VSS a_2648_2480# a_3498_2476# VSUBS nfet_03v3 ad=0.23585p pd=1.95u as=0.1378p ps=1.05u w=0.53u l=0.28u
X123 VSS a_1365_936# a_2215_1166# VSUBS nfet_03v3 ad=0.23585p pd=1.95u as=0.1378p ps=1.05u w=0.53u l=0.28u
X124 a_0_888# r1_w1_wl c0_w1_br VSUBS nfet_03v3 ad=0.1288p pd=1.48u as=0.1208p ps=1.42u w=0.28u l=0.36u
X125 a_2215_160# r0_r0_rwl c1_r0_rbl VSUBS nfet_03v3 ad=0.1378p pd=1.05u as=0.2332p ps=1.94u w=0.53u l=0.28u
X126 a_3498_932# r1_r0_rwl c2_r0_rbl VSUBS nfet_03v3 ad=0.1378p pd=1.05u as=0.2332p ps=1.94u w=0.53u l=0.28u
X127 a_2215_2476# r3_r0_rwl c1_r0_rbl VSUBS nfet_03v3 ad=0.1378p pd=1.05u as=0.2332p ps=1.94u w=0.53u l=0.28u
X128 a_932_160# r0_r0_rwl c0_r0_rbl VSUBS nfet_03v3 ad=0.1378p pd=1.05u as=0.2332p ps=1.94u w=0.53u l=0.28u
X129 a_82_164# r0_w0_wl c0_w0_bl VSUBS nfet_03v3 ad=0.1288p pd=1.48u as=0.1208p ps=1.42u w=0.28u l=0.36u
X130 a_932_2476# r3_r0_rwl c0_r0_rbl VSUBS nfet_03v3 ad=0.1378p pd=1.05u as=0.2332p ps=1.94u w=0.53u l=0.28u
X131 a_3931_1708# a_3849_1660# VSS VSUBS nfet_03v3 ad=0.3133p pd=2.64u as=0.342p ps=2.21u w=0.45u l=0.28u
X132 a_3931_164# a_3849_116# VSS VSUBS nfet_03v3 ad=0.3133p pd=2.64u as=0.342p ps=2.21u w=0.45u l=0.28u
X133 a_1283_116# r0_w0_wl c1_w0_br VSUBS nfet_03v3 ad=0.1288p pd=1.48u as=0.1208p ps=1.42u w=0.28u l=0.36u
X134 a_1283_1660# r2_w0_wl c1_w0_br VSUBS nfet_03v3 ad=0.1288p pd=1.48u as=0.1208p ps=1.42u w=0.28u l=0.36u
X135 a_82_164# r0_w1_wl c0_w1_bl VSUBS nfet_03v3 ad=0.1288p pd=1.48u as=0.1208p ps=1.42u w=0.28u l=0.36u
X136 VSS a_82_164# a_0_116# VSUBS nfet_03v3 ad=0.342p pd=2.21u as=0.3133p ps=2.64u w=0.45u l=0.28u
X137 a_1283_116# r0_w1_wl c1_w1_br VSUBS nfet_03v3 ad=0.1288p pd=1.48u as=0.1208p ps=1.42u w=0.28u l=0.36u
X138 a_1365_1708# r2_w1_wl c1_w1_bl VSUBS nfet_03v3 ad=0.1288p pd=1.48u as=0.1208p ps=1.42u w=0.28u l=0.36u
X139 VSS a_3931_936# a_4781_932# VSUBS nfet_03v3 ad=0.23585p pd=1.95u as=0.1378p ps=1.05u w=0.53u l=0.28u
X140 a_2648_2480# r3_w0_wl c2_w0_bl VSUBS nfet_03v3 ad=0.1288p pd=1.48u as=0.1208p ps=1.42u w=0.28u l=0.36u
X141 a_2566_888# r1_w0_wl c2_w0_br VSUBS nfet_03v3 ad=0.1288p pd=1.48u as=0.1208p ps=1.42u w=0.28u l=0.36u
X142 a_2648_936# r1_w0_wl c2_w0_bl VSUBS nfet_03v3 ad=0.1288p pd=1.48u as=0.1208p ps=1.42u w=0.28u l=0.36u
X143 a_2648_2480# r3_w1_wl c2_w1_bl VSUBS nfet_03v3 ad=0.1288p pd=1.48u as=0.1208p ps=1.42u w=0.28u l=0.36u
X144 VDD a_1365_1708# a_1283_1660# w_1283_1934# pfet_03v3 ad=0.3061p pd=2.445u as=0.1238p ps=1.44u w=0.28u l=0.28u
X145 VSS a_82_1708# a_932_1938# VSUBS nfet_03v3 ad=0.23585p pd=1.95u as=0.1378p ps=1.05u w=0.53u l=0.28u
X146 VSS a_2648_164# a_3498_394# VSUBS nfet_03v3 ad=0.23585p pd=1.95u as=0.1378p ps=1.05u w=0.53u l=0.28u
X147 VSS a_1365_1708# a_2215_1938# VSUBS nfet_03v3 ad=0.23585p pd=1.95u as=0.1378p ps=1.05u w=0.53u l=0.28u
X148 VDD a_2648_1708# a_2566_1660# w_2566_1934# pfet_03v3 ad=0.3061p pd=2.445u as=0.1238p ps=1.44u w=0.28u l=0.28u
X149 VDD a_82_1708# a_0_1660# w_0_1934# pfet_03v3 ad=0.3061p pd=2.445u as=0.1238p ps=1.44u w=0.28u l=0.28u
X150 VSS a_3931_2480# a_4781_2710# VSUBS nfet_03v3 ad=0.23585p pd=1.95u as=0.1378p ps=1.05u w=0.53u l=0.28u
X151 a_2215_932# r1_r0_rwl c1_r0_rbl VSUBS nfet_03v3 ad=0.1378p pd=1.05u as=0.2332p ps=1.94u w=0.53u l=0.28u
X152 a_932_932# r1_r0_rwl c0_r0_rbl VSUBS nfet_03v3 ad=0.1378p pd=1.05u as=0.2332p ps=1.94u w=0.53u l=0.28u
X153 a_1365_1708# a_1283_1660# VSS VSUBS nfet_03v3 ad=0.3133p pd=2.64u as=0.342p ps=2.21u w=0.45u l=0.28u
X154 a_3498_2710# r3_r1_rwl c2_r1_rbl VSUBS nfet_03v3 ad=0.1378p pd=1.05u as=0.2332p ps=1.94u w=0.53u l=0.28u
X155 VSS a_3931_2480# a_3849_2432# VSUBS nfet_03v3 ad=0.342p pd=2.21u as=0.3133p ps=2.64u w=0.45u l=0.28u
X156 a_3931_1708# r2_w0_wl c3_w0_bl VSUBS nfet_03v3 ad=0.1288p pd=1.48u as=0.1208p ps=1.42u w=0.28u l=0.36u
X157 a_4781_2710# r3_r1_rwl c3_r1_rbl VSUBS nfet_03v3 ad=0.1378p pd=1.05u as=0.2332p ps=1.94u w=0.53u l=0.28u
X158 a_0_1660# r2_w1_wl c0_w1_br VSUBS nfet_03v3 ad=0.1288p pd=1.48u as=0.1208p ps=1.42u w=0.28u l=0.36u
X159 a_82_936# a_0_888# VSS VSUBS nfet_03v3 ad=0.3133p pd=2.64u as=0.342p ps=2.21u w=0.45u l=0.28u
X160 a_3931_2480# a_3849_2432# VSS VSUBS nfet_03v3 ad=0.3133p pd=2.64u as=0.342p ps=2.21u w=0.45u l=0.28u
X161 VDD a_3931_936# a_3849_888# w_3849_1162# pfet_03v3 ad=0.3061p pd=2.445u as=0.1238p ps=1.44u w=0.28u l=0.28u
X162 a_2648_2480# a_2566_2432# VDD w_2566_2706# pfet_03v3 ad=0.1238p pd=1.44u as=0.3061p ps=2.445u w=0.28u l=0.28u
X163 a_0_888# r1_w0_wl c0_w0_br VSUBS nfet_03v3 ad=0.1288p pd=1.48u as=0.1208p ps=1.42u w=0.28u l=0.36u
X164 a_1283_2432# r3_w0_wl c1_w0_br VSUBS nfet_03v3 ad=0.1288p pd=1.48u as=0.1208p ps=1.42u w=0.28u l=0.36u
X165 a_2566_888# r1_w1_wl c2_w1_br VSUBS nfet_03v3 ad=0.1288p pd=1.48u as=0.1208p ps=1.42u w=0.28u l=0.36u
X166 a_82_936# r1_w1_wl c0_w1_bl VSUBS nfet_03v3 ad=0.1288p pd=1.48u as=0.1208p ps=1.42u w=0.28u l=0.36u
X167 a_1283_2432# r3_w1_wl c1_w1_br VSUBS nfet_03v3 ad=0.1288p pd=1.48u as=0.1208p ps=1.42u w=0.28u l=0.36u
X168 VSS a_3931_2480# a_4781_2476# VSUBS nfet_03v3 ad=0.23585p pd=1.95u as=0.1378p ps=1.05u w=0.53u l=0.28u
X169 VSS a_1365_164# a_2215_394# VSUBS nfet_03v3 ad=0.23585p pd=1.95u as=0.1378p ps=1.05u w=0.53u l=0.28u
X170 a_1365_164# r0_w0_wl c1_w0_bl VSUBS nfet_03v3 ad=0.1288p pd=1.48u as=0.1208p ps=1.42u w=0.28u l=0.36u
X171 a_3849_888# r1_w1_wl c3_w1_br VSUBS nfet_03v3 ad=0.1288p pd=1.48u as=0.1208p ps=1.42u w=0.28u l=0.36u
X172 VSS a_2648_936# a_3498_1166# VSUBS nfet_03v3 ad=0.23585p pd=1.95u as=0.1378p ps=1.05u w=0.53u l=0.28u
X173 a_3931_936# a_3849_888# VDD w_3849_1162# pfet_03v3 ad=0.1238p pd=1.44u as=0.3061p ps=2.445u w=0.28u l=0.28u
X174 a_3498_2476# r3_r0_rwl c2_r0_rbl VSUBS nfet_03v3 ad=0.1378p pd=1.05u as=0.2332p ps=1.94u w=0.53u l=0.28u
X175 a_1365_164# r0_w1_wl c1_w1_bl VSUBS nfet_03v3 ad=0.1288p pd=1.48u as=0.1208p ps=1.42u w=0.28u l=0.36u
X176 a_2215_1166# r1_r1_rwl c1_r1_rbl VSUBS nfet_03v3 ad=0.1378p pd=1.05u as=0.2332p ps=1.94u w=0.53u l=0.28u
X177 a_4781_2476# r3_r0_rwl c3_r0_rbl VSUBS nfet_03v3 ad=0.1378p pd=1.05u as=0.2332p ps=1.94u w=0.53u l=0.28u
X178 VSS a_82_1708# a_932_1704# VSUBS nfet_03v3 ad=0.23585p pd=1.95u as=0.1378p ps=1.05u w=0.53u l=0.28u
X179 VSS a_2648_164# a_3498_160# VSUBS nfet_03v3 ad=0.23585p pd=1.95u as=0.1378p ps=1.05u w=0.53u l=0.28u
X180 a_1365_1708# r2_w0_wl c1_w0_bl VSUBS nfet_03v3 ad=0.1288p pd=1.48u as=0.1208p ps=1.42u w=0.28u l=0.36u
X181 VSS a_1365_1708# a_2215_1704# VSUBS nfet_03v3 ad=0.23585p pd=1.95u as=0.1378p ps=1.05u w=0.53u l=0.28u
X182 a_2648_936# a_2566_888# VSS VSUBS nfet_03v3 ad=0.3133p pd=2.64u as=0.342p ps=2.21u w=0.45u l=0.28u
X183 a_932_1166# r1_r1_rwl c0_r1_rbl VSUBS nfet_03v3 ad=0.1378p pd=1.05u as=0.2332p ps=1.94u w=0.53u l=0.28u
X184 a_82_2480# a_0_2432# VDD w_0_2706# pfet_03v3 ad=0.1238p pd=1.44u as=0.3061p ps=2.445u w=0.28u l=0.28u
X185 a_1365_2480# a_1283_2432# VSS VSUBS nfet_03v3 ad=0.3133p pd=2.64u as=0.342p ps=2.21u w=0.45u l=0.28u
X186 a_3931_2480# r3_w0_wl c3_w0_bl VSUBS nfet_03v3 ad=0.1288p pd=1.48u as=0.1208p ps=1.42u w=0.28u l=0.36u
X187 VSS a_82_164# a_932_394# VSUBS nfet_03v3 ad=0.23585p pd=1.95u as=0.1378p ps=1.05u w=0.53u l=0.28u
X188 a_3931_2480# r3_w1_wl c3_w1_bl VSUBS nfet_03v3 ad=0.1288p pd=1.48u as=0.1208p ps=1.42u w=0.28u l=0.36u
X189 VSS a_3931_936# a_3849_888# VSUBS nfet_03v3 ad=0.342p pd=2.21u as=0.3133p ps=2.64u w=0.45u l=0.28u
X190 VDD a_3931_1708# a_3849_1660# w_3849_1934# pfet_03v3 ad=0.3061p pd=2.445u as=0.1238p ps=1.44u w=0.28u l=0.28u
X191 VSS a_2648_1708# a_3498_1938# VSUBS nfet_03v3 ad=0.23585p pd=1.95u as=0.1378p ps=1.05u w=0.53u l=0.28u
.ends

.subckt gf180mcu_3v3_12t_2r2w_sram_512x8 clk w0_en w1_en r0_en r1_en w0_addr[0]
+ w0_addr[1] w0_addr[2] w0_addr[3] w0_addr[4] w0_addr[5] w0_addr[6] w0_addr[7] w0_addr[8]
+ w1_addr[0] w1_addr[1] w1_addr[2] w1_addr[3] w1_addr[4] w1_addr[5] w1_addr[6] w1_addr[7]
+ w1_addr[8] r0_addr[0] r0_addr[1] r0_addr[2] r0_addr[3] r0_addr[4] r0_addr[5] r0_addr[6]
+ r0_addr[7] r0_addr[8] r1_addr[0] r1_addr[1] r1_addr[2] r1_addr[3] r1_addr[4] r1_addr[5]
+ r1_addr[6] r1_addr[7] r1_addr[8] w0_data[0] w0_data[1] w0_data[2] w0_data[3] w0_data[4]
+ w0_data[5] w0_data[6] w0_data[7] w1_data[0] w1_data[1] w1_data[2] w1_data[3] w1_data[4]
+ w1_data[5] w1_data[6] w1_data[7] r0_data[0] r0_data[1] r0_data[2] r0_data[3] r0_data[4]
+ r0_data[5] r0_data[6] r0_data[7] r1_data[0] r1_data[1] r1_data[2] r1_data[3] r1_data[4]
+ r1_data[5] r1_data[6] r1_data[7] VDD VSS
Xu_t013_010 u_t013_010/c0_w0_bl u_t013_010/c0_w0_br u_t013_010/c0_w1_bl u_t013_010/c0_w1_br
+ u_t013_010/c0_r0_rbl u_t013_010/c0_r1_rbl u_t013_010/c1_w0_bl u_t013_010/c1_w0_br
+ u_t013_010/c1_w1_bl u_t013_010/c1_w1_br u_t013_010/c1_r0_rbl u_t013_010/c1_r1_rbl
+ u_t013_010/c2_w0_bl u_t013_010/c2_w0_br u_t013_010/c2_w1_bl u_t013_010/c2_w1_br
+ u_t013_010/c2_r0_rbl u_t013_010/c2_r1_rbl u_t013_010/c3_w0_bl u_t013_010/c3_w0_br
+ u_t013_010/c3_w1_bl u_t013_010/c3_w1_br u_t013_010/c3_r0_rbl u_t013_010/c3_r1_rbl
+ u_t013_010/r0_w0_wl u_t013_010/r0_w1_wl u_t013_010/r0_r0_rwl u_t013_010/r0_r1_rwl
+ u_t013_010/r1_w0_wl u_t013_010/r1_w1_wl u_t013_010/r1_r0_rwl u_t013_010/r1_r1_rwl
+ u_t013_010/r2_w0_wl u_t013_010/r2_w1_wl u_t013_010/r2_r0_rwl u_t013_010/r2_r1_rwl
+ u_t013_010/r3_w0_wl u_t013_010/r3_w1_wl u_t013_010/r3_r0_rwl u_t013_010/r3_r1_rwl
+ VDD VSS VSUBS gf180mcu_3v3_12t_2r2w_sram_4x4_tile
Xu_t008_007 u_t008_007/c0_w0_bl u_t008_007/c0_w0_br u_t008_007/c0_w1_bl u_t008_007/c0_w1_br
+ u_t008_007/c0_r0_rbl u_t008_007/c0_r1_rbl u_t008_007/c1_w0_bl u_t008_007/c1_w0_br
+ u_t008_007/c1_w1_bl u_t008_007/c1_w1_br u_t008_007/c1_r0_rbl u_t008_007/c1_r1_rbl
+ u_t008_007/c2_w0_bl u_t008_007/c2_w0_br u_t008_007/c2_w1_bl u_t008_007/c2_w1_br
+ u_t008_007/c2_r0_rbl u_t008_007/c2_r1_rbl u_t008_007/c3_w0_bl u_t008_007/c3_w0_br
+ u_t008_007/c3_w1_bl u_t008_007/c3_w1_br u_t008_007/c3_r0_rbl u_t008_007/c3_r1_rbl
+ u_t008_007/r0_w0_wl u_t008_007/r0_w1_wl u_t008_007/r0_r0_rwl u_t008_007/r0_r1_rwl
+ u_t008_007/r1_w0_wl u_t008_007/r1_w1_wl u_t008_007/r1_r0_rwl u_t008_007/r1_r1_rwl
+ u_t008_007/r2_w0_wl u_t008_007/r2_w1_wl u_t008_007/r2_r0_rwl u_t008_007/r2_r1_rwl
+ u_t008_007/r3_w0_wl u_t008_007/r3_w1_wl u_t008_007/r3_r0_rwl u_t008_007/r3_r1_rwl
+ VDD VSS VSUBS gf180mcu_3v3_12t_2r2w_sram_4x4_tile
Xu_t010_013 u_t010_013/c0_w0_bl u_t010_013/c0_w0_br u_t010_013/c0_w1_bl u_t010_013/c0_w1_br
+ u_t010_013/c0_r0_rbl u_t010_013/c0_r1_rbl u_t010_013/c1_w0_bl u_t010_013/c1_w0_br
+ u_t010_013/c1_w1_bl u_t010_013/c1_w1_br u_t010_013/c1_r0_rbl u_t010_013/c1_r1_rbl
+ u_t010_013/c2_w0_bl u_t010_013/c2_w0_br u_t010_013/c2_w1_bl u_t010_013/c2_w1_br
+ u_t010_013/c2_r0_rbl u_t010_013/c2_r1_rbl u_t010_013/c3_w0_bl u_t010_013/c3_w0_br
+ u_t010_013/c3_w1_bl u_t010_013/c3_w1_br u_t010_013/c3_r0_rbl u_t010_013/c3_r1_rbl
+ u_t010_013/r0_w0_wl u_t010_013/r0_w1_wl u_t010_013/r0_r0_rwl u_t010_013/r0_r1_rwl
+ u_t010_013/r1_w0_wl u_t010_013/r1_w1_wl u_t010_013/r1_r0_rwl u_t010_013/r1_r1_rwl
+ u_t010_013/r2_w0_wl u_t010_013/r2_w1_wl u_t010_013/r2_r0_rwl u_t010_013/r2_r1_rwl
+ u_t010_013/r3_w0_wl u_t010_013/r3_w1_wl u_t010_013/r3_r0_rwl u_t010_013/r3_r1_rwl
+ VDD VSS VSUBS gf180mcu_3v3_12t_2r2w_sram_4x4_tile
Xu_t010_002 u_t010_002/c0_w0_bl u_t010_002/c0_w0_br u_t010_002/c0_w1_bl u_t010_002/c0_w1_br
+ u_t010_002/c0_r0_rbl u_t010_002/c0_r1_rbl u_t010_002/c1_w0_bl u_t010_002/c1_w0_br
+ u_t010_002/c1_w1_bl u_t010_002/c1_w1_br u_t010_002/c1_r0_rbl u_t010_002/c1_r1_rbl
+ u_t010_002/c2_w0_bl u_t010_002/c2_w0_br u_t010_002/c2_w1_bl u_t010_002/c2_w1_br
+ u_t010_002/c2_r0_rbl u_t010_002/c2_r1_rbl u_t010_002/c3_w0_bl u_t010_002/c3_w0_br
+ u_t010_002/c3_w1_bl u_t010_002/c3_w1_br u_t010_002/c3_r0_rbl u_t010_002/c3_r1_rbl
+ u_t010_002/r0_w0_wl u_t010_002/r0_w1_wl u_t010_002/r0_r0_rwl u_t010_002/r0_r1_rwl
+ u_t010_002/r1_w0_wl u_t010_002/r1_w1_wl u_t010_002/r1_r0_rwl u_t010_002/r1_r1_rwl
+ u_t010_002/r2_w0_wl u_t010_002/r2_w1_wl u_t010_002/r2_r0_rwl u_t010_002/r2_r1_rwl
+ u_t010_002/r3_w0_wl u_t010_002/r3_w1_wl u_t010_002/r3_r0_rwl u_t010_002/r3_r1_rwl
+ VDD VSS VSUBS gf180mcu_3v3_12t_2r2w_sram_4x4_tile
Xu_t001_002 u_t001_002/c0_w0_bl u_t001_002/c0_w0_br u_t001_002/c0_w1_bl u_t001_002/c0_w1_br
+ u_t001_002/c0_r0_rbl u_t001_002/c0_r1_rbl u_t001_002/c1_w0_bl u_t001_002/c1_w0_br
+ u_t001_002/c1_w1_bl u_t001_002/c1_w1_br u_t001_002/c1_r0_rbl u_t001_002/c1_r1_rbl
+ u_t001_002/c2_w0_bl u_t001_002/c2_w0_br u_t001_002/c2_w1_bl u_t001_002/c2_w1_br
+ u_t001_002/c2_r0_rbl u_t001_002/c2_r1_rbl u_t001_002/c3_w0_bl u_t001_002/c3_w0_br
+ u_t001_002/c3_w1_bl u_t001_002/c3_w1_br u_t001_002/c3_r0_rbl u_t001_002/c3_r1_rbl
+ u_t001_002/r0_w0_wl u_t001_002/r0_w1_wl u_t001_002/r0_r0_rwl u_t001_002/r0_r1_rwl
+ u_t001_002/r1_w0_wl u_t001_002/r1_w1_wl u_t001_002/r1_r0_rwl u_t001_002/r1_r1_rwl
+ u_t001_002/r2_w0_wl u_t001_002/r2_w1_wl u_t001_002/r2_r0_rwl u_t001_002/r2_r1_rwl
+ u_t001_002/r3_w0_wl u_t001_002/r3_w1_wl u_t001_002/r3_r0_rwl u_t001_002/r3_r1_rwl
+ VDD VSS VSUBS gf180mcu_3v3_12t_2r2w_sram_4x4_tile
Xu_t001_013 u_t001_013/c0_w0_bl u_t001_013/c0_w0_br u_t001_013/c0_w1_bl u_t001_013/c0_w1_br
+ u_t001_013/c0_r0_rbl u_t001_013/c0_r1_rbl u_t001_013/c1_w0_bl u_t001_013/c1_w0_br
+ u_t001_013/c1_w1_bl u_t001_013/c1_w1_br u_t001_013/c1_r0_rbl u_t001_013/c1_r1_rbl
+ u_t001_013/c2_w0_bl u_t001_013/c2_w0_br u_t001_013/c2_w1_bl u_t001_013/c2_w1_br
+ u_t001_013/c2_r0_rbl u_t001_013/c2_r1_rbl u_t001_013/c3_w0_bl u_t001_013/c3_w0_br
+ u_t001_013/c3_w1_bl u_t001_013/c3_w1_br u_t001_013/c3_r0_rbl u_t001_013/c3_r1_rbl
+ u_t001_013/r0_w0_wl u_t001_013/r0_w1_wl u_t001_013/r0_r0_rwl u_t001_013/r0_r1_rwl
+ u_t001_013/r1_w0_wl u_t001_013/r1_w1_wl u_t001_013/r1_r0_rwl u_t001_013/r1_r1_rwl
+ u_t001_013/r2_w0_wl u_t001_013/r2_w1_wl u_t001_013/r2_r0_rwl u_t001_013/r2_r1_rwl
+ u_t001_013/r3_w0_wl u_t001_013/r3_w1_wl u_t001_013/r3_r0_rwl u_t001_013/r3_r1_rwl
+ VDD VSS VSUBS gf180mcu_3v3_12t_2r2w_sram_4x4_tile
Xu_t004_010 u_t004_010/c0_w0_bl u_t004_010/c0_w0_br u_t004_010/c0_w1_bl u_t004_010/c0_w1_br
+ u_t004_010/c0_r0_rbl u_t004_010/c0_r1_rbl u_t004_010/c1_w0_bl u_t004_010/c1_w0_br
+ u_t004_010/c1_w1_bl u_t004_010/c1_w1_br u_t004_010/c1_r0_rbl u_t004_010/c1_r1_rbl
+ u_t004_010/c2_w0_bl u_t004_010/c2_w0_br u_t004_010/c2_w1_bl u_t004_010/c2_w1_br
+ u_t004_010/c2_r0_rbl u_t004_010/c2_r1_rbl u_t004_010/c3_w0_bl u_t004_010/c3_w0_br
+ u_t004_010/c3_w1_bl u_t004_010/c3_w1_br u_t004_010/c3_r0_rbl u_t004_010/c3_r1_rbl
+ u_t004_010/r0_w0_wl u_t004_010/r0_w1_wl u_t004_010/r0_r0_rwl u_t004_010/r0_r1_rwl
+ u_t004_010/r1_w0_wl u_t004_010/r1_w1_wl u_t004_010/r1_r0_rwl u_t004_010/r1_r1_rwl
+ u_t004_010/r2_w0_wl u_t004_010/r2_w1_wl u_t004_010/r2_r0_rwl u_t004_010/r2_r1_rwl
+ u_t004_010/r3_w0_wl u_t004_010/r3_w1_wl u_t004_010/r3_r0_rwl u_t004_010/r3_r1_rwl
+ VDD VSS VSUBS gf180mcu_3v3_12t_2r2w_sram_4x4_tile
Xu_t008_008 u_t008_008/c0_w0_bl u_t008_008/c0_w0_br u_t008_008/c0_w1_bl u_t008_008/c0_w1_br
+ u_t008_008/c0_r0_rbl u_t008_008/c0_r1_rbl u_t008_008/c1_w0_bl u_t008_008/c1_w0_br
+ u_t008_008/c1_w1_bl u_t008_008/c1_w1_br u_t008_008/c1_r0_rbl u_t008_008/c1_r1_rbl
+ u_t008_008/c2_w0_bl u_t008_008/c2_w0_br u_t008_008/c2_w1_bl u_t008_008/c2_w1_br
+ u_t008_008/c2_r0_rbl u_t008_008/c2_r1_rbl u_t008_008/c3_w0_bl u_t008_008/c3_w0_br
+ u_t008_008/c3_w1_bl u_t008_008/c3_w1_br u_t008_008/c3_r0_rbl u_t008_008/c3_r1_rbl
+ u_t008_008/r0_w0_wl u_t008_008/r0_w1_wl u_t008_008/r0_r0_rwl u_t008_008/r0_r1_rwl
+ u_t008_008/r1_w0_wl u_t008_008/r1_w1_wl u_t008_008/r1_r0_rwl u_t008_008/r1_r1_rwl
+ u_t008_008/r2_w0_wl u_t008_008/r2_w1_wl u_t008_008/r2_r0_rwl u_t008_008/r2_r1_rwl
+ u_t008_008/r3_w0_wl u_t008_008/r3_w1_wl u_t008_008/r3_r0_rwl u_t008_008/r3_r1_rwl
+ VDD VSS VSUBS gf180mcu_3v3_12t_2r2w_sram_4x4_tile
Xu_t013_011 u_t013_011/c0_w0_bl u_t013_011/c0_w0_br u_t013_011/c0_w1_bl u_t013_011/c0_w1_br
+ u_t013_011/c0_r0_rbl u_t013_011/c0_r1_rbl u_t013_011/c1_w0_bl u_t013_011/c1_w0_br
+ u_t013_011/c1_w1_bl u_t013_011/c1_w1_br u_t013_011/c1_r0_rbl u_t013_011/c1_r1_rbl
+ u_t013_011/c2_w0_bl u_t013_011/c2_w0_br u_t013_011/c2_w1_bl u_t013_011/c2_w1_br
+ u_t013_011/c2_r0_rbl u_t013_011/c2_r1_rbl u_t013_011/c3_w0_bl u_t013_011/c3_w0_br
+ u_t013_011/c3_w1_bl u_t013_011/c3_w1_br u_t013_011/c3_r0_rbl u_t013_011/c3_r1_rbl
+ u_t013_011/r0_w0_wl u_t013_011/r0_w1_wl u_t013_011/r0_r0_rwl u_t013_011/r0_r1_rwl
+ u_t013_011/r1_w0_wl u_t013_011/r1_w1_wl u_t013_011/r1_r0_rwl u_t013_011/r1_r1_rwl
+ u_t013_011/r2_w0_wl u_t013_011/r2_w1_wl u_t013_011/r2_r0_rwl u_t013_011/r2_r1_rwl
+ u_t013_011/r3_w0_wl u_t013_011/r3_w1_wl u_t013_011/r3_r0_rwl u_t013_011/r3_r1_rwl
+ VDD VSS VSUBS gf180mcu_3v3_12t_2r2w_sram_4x4_tile