* RC7 structural custom-gate control matrix for detronyx_12t_2w2r_1024x8_rc6_fullctrl
* Folded contract: 1024 logical rows -> 128 physical WL rows + 8-way group select.
.subckt detronyx_12t_2w2r_1024x8_rc6_fullctrl_rc7_control_matrix VDD VSS w0_en w1_en r0_en r1_en write_conflict w0_addr[0] w0_addr[1] w0_addr[2] w0_addr[3] w0_addr[4] w0_addr[5] w0_addr[6] w0_addr[7] w0_addr[8] w0_addr[9] w1_addr[0] w1_addr[1] w1_addr[2] w1_addr[3] w1_addr[4] w1_addr[5] w1_addr[6] w1_addr[7] w1_addr[8] w1_addr[9] r0_addr[0] r0_addr[1] r0_addr[2] r0_addr[3] r0_addr[4] r0_addr[5] r0_addr[6] r0_addr[7] r0_addr[8] r0_addr[9] r1_addr[0] r1_addr[1] r1_addr[2] r1_addr[3] r1_addr[4] r1_addr[5] r1_addr[6] r1_addr[7] r1_addr[8] r1_addr[9] w0_wl[0] w0_wl[1] w0_wl[2] w0_wl[3] w0_wl[4] w0_wl[5] w0_wl[6] w0_wl[7] w0_wl[8] w0_wl[9] w0_wl[10] w0_wl[11] w0_wl[12] w0_wl[13] w0_wl[14] w0_wl[15] w0_wl[16] w0_wl[17] w0_wl[18] w0_wl[19] w0_wl[20] w0_wl[21] w0_wl[22] w0_wl[23] w0_wl[24] w0_wl[25] w0_wl[26] w0_wl[27] w0_wl[28] w0_wl[29] w0_wl[30] w0_wl[31] w0_wl[32] w0_wl[33] w0_wl[34] w0_wl[35] w0_wl[36] w0_wl[37] w0_wl[38] w0_wl[39] w0_wl[40] w0_wl[41] w0_wl[42] w0_wl[43] w0_wl[44] w0_wl[45] w0_wl[46] w0_wl[47] w0_wl[48] w0_wl[49] w0_wl[50] w0_wl[51] w0_wl[52] w0_wl[53] w0_wl[54] w0_wl[55] w0_wl[56] w0_wl[57] w0_wl[58] w0_wl[59] w0_wl[60] w0_wl[61] w0_wl[62] w0_wl[63] w0_wl[64] w0_wl[65] w0_wl[66] w0_wl[67] w0_wl[68] w0_wl[69] w0_wl[70] w0_wl[71] w0_wl[72] w0_wl[73] w0_wl[74] w0_wl[75] w0_wl[76] w0_wl[77] w0_wl[78] w0_wl[79] w0_wl[80] w0_wl[81] w0_wl[82] w0_wl[83] w0_wl[84] w0_wl[85] w0_wl[86] w0_wl[87] w0_wl[88] w0_wl[89] w0_wl[90] w0_wl[91] w0_wl[92] w0_wl[93] w0_wl[94] w0_wl[95] w0_wl[96] w0_wl[97] w0_wl[98] w0_wl[99] w0_wl[100] w0_wl[101] w0_wl[102] w0_wl[103] w0_wl[104] w0_wl[105] w0_wl[106] w0_wl[107] w0_wl[108] w0_wl[109] w0_wl[110] w0_wl[111] w0_wl[112] w0_wl[113] w0_wl[114] w0_wl[115] w0_wl[116] w0_wl[117] w0_wl[118] w0_wl[119] w0_wl[120] w0_wl[121] w0_wl[122] w0_wl[123] w0_wl[124] w0_wl[125] w0_wl[126] w0_wl[127] w0_grp[0] w0_grp[1] w0_grp[2] w0_grp[3] w0_grp[4] w0_grp[5] w0_grp[6] w0_grp[7] w1_wl[0] w1_wl[1] w1_wl[2] w1_wl[3] w1_wl[4] w1_wl[5] w1_wl[6] w1_wl[7] w1_wl[8] w1_wl[9] w1_wl[10] w1_wl[11] w1_wl[12] w1_wl[13] w1_wl[14] w1_wl[15] w1_wl[16] w1_wl[17] w1_wl[18] w1_wl[19] w1_wl[20] w1_wl[21] w1_wl[22] w1_wl[23] w1_wl[24] w1_wl[25] w1_wl[26] w1_wl[27] w1_wl[28] w1_wl[29] w1_wl[30] w1_wl[31] w1_wl[32] w1_wl[33] w1_wl[34] w1_wl[35] w1_wl[36] w1_wl[37] w1_wl[38] w1_wl[39] w1_wl[40] w1_wl[41] w1_wl[42] w1_wl[43] w1_wl[44] w1_wl[45] w1_wl[46] w1_wl[47] w1_wl[48] w1_wl[49] w1_wl[50] w1_wl[51] w1_wl[52] w1_wl[53] w1_wl[54] w1_wl[55] w1_wl[56] w1_wl[57] w1_wl[58] w1_wl[59] w1_wl[60] w1_wl[61] w1_wl[62] w1_wl[63] w1_wl[64] w1_wl[65] w1_wl[66] w1_wl[67] w1_wl[68] w1_wl[69] w1_wl[70] w1_wl[71] w1_wl[72] w1_wl[73] w1_wl[74] w1_wl[75] w1_wl[76] w1_wl[77] w1_wl[78] w1_wl[79] w1_wl[80] w1_wl[81] w1_wl[82] w1_wl[83] w1_wl[84] w1_wl[85] w1_wl[86] w1_wl[87] w1_wl[88] w1_wl[89] w1_wl[90] w1_wl[91] w1_wl[92] w1_wl[93] w1_wl[94] w1_wl[95] w1_wl[96] w1_wl[97] w1_wl[98] w1_wl[99] w1_wl[100] w1_wl[101] w1_wl[102] w1_wl[103] w1_wl[104] w1_wl[105] w1_wl[106] w1_wl[107] w1_wl[108] w1_wl[109] w1_wl[110] w1_wl[111] w1_wl[112] w1_wl[113] w1_wl[114] w1_wl[115] w1_wl[116] w1_wl[117] w1_wl[118] w1_wl[119] w1_wl[120] w1_wl[121] w1_wl[122] w1_wl[123] w1_wl[124] w1_wl[125] w1_wl[126] w1_wl[127] w1_grp[0] w1_grp[1] w1_grp[2] w1_grp[3] w1_grp[4] w1_grp[5] w1_grp[6] w1_grp[7] r0_wl[0] r0_wl[1] r0_wl[2] r0_wl[3] r0_wl[4] r0_wl[5] r0_wl[6] r0_wl[7] r0_wl[8] r0_wl[9] r0_wl[10] r0_wl[11] r0_wl[12] r0_wl[13] r0_wl[14] r0_wl[15] r0_wl[16] r0_wl[17] r0_wl[18] r0_wl[19] r0_wl[20] r0_wl[21] r0_wl[22] r0_wl[23] r0_wl[24] r0_wl[25] r0_wl[26] r0_wl[27] r0_wl[28] r0_wl[29] r0_wl[30] r0_wl[31] r0_wl[32] r0_wl[33] r0_wl[34] r0_wl[35] r0_wl[36] r0_wl[37] r0_wl[38] r0_wl[39] r0_wl[40] r0_wl[41] r0_wl[42] r0_wl[43] r0_wl[44] r0_wl[45] r0_wl[46] r0_wl[47] r0_wl[48] r0_wl[49] r0_wl[50] r0_wl[51] r0_wl[52] r0_wl[53] r0_wl[54] r0_wl[55] r0_wl[56] r0_wl[57] r0_wl[58] r0_wl[59] r0_wl[60] r0_wl[61] r0_wl[62] r0_wl[63] r0_wl[64] r0_wl[65] r0_wl[66] r0_wl[67] r0_wl[68] r0_wl[69] r0_wl[70] r0_wl[71] r0_wl[72] r0_wl[73] r0_wl[74] r0_wl[75] r0_wl[76] r0_wl[77] r0_wl[78] r0_wl[79] r0_wl[80] r0_wl[81] r0_wl[82] r0_wl[83] r0_wl[84] r0_wl[85] r0_wl[86] r0_wl[87] r0_wl[88] r0_wl[89] r0_wl[90] r0_wl[91] r0_wl[92] r0_wl[93] r0_wl[94] r0_wl[95] r0_wl[96] r0_wl[97] r0_wl[98] r0_wl[99] r0_wl[100] r0_wl[101] r0_wl[102] r0_wl[103] r0_wl[104] r0_wl[105] r0_wl[106] r0_wl[107] r0_wl[108] r0_wl[109] r0_wl[110] r0_wl[111] r0_wl[112] r0_wl[113] r0_wl[114] r0_wl[115] r0_wl[116] r0_wl[117] r0_wl[118] r0_wl[119] r0_wl[120] r0_wl[121] r0_wl[122] r0_wl[123] r0_wl[124] r0_wl[125] r0_wl[126] r0_wl[127] r0_grp[0] r0_grp[1] r0_grp[2] r0_grp[3] r0_grp[4] r0_grp[5] r0_grp[6] r0_grp[7] r1_wl[0] r1_wl[1] r1_wl[2] r1_wl[3] r1_wl[4] r1_wl[5] r1_wl[6] r1_wl[7] r1_wl[8] r1_wl[9] r1_wl[10] r1_wl[11] r1_wl[12] r1_wl[13] r1_wl[14] r1_wl[15] r1_wl[16] r1_wl[17] r1_wl[18] r1_wl[19] r1_wl[20] r1_wl[21] r1_wl[22] r1_wl[23] r1_wl[24] r1_wl[25] r1_wl[26] r1_wl[27] r1_wl[28] r1_wl[29] r1_wl[30] r1_wl[31] r1_wl[32] r1_wl[33] r1_wl[34] r1_wl[35] r1_wl[36] r1_wl[37] r1_wl[38] r1_wl[39] r1_wl[40] r1_wl[41] r1_wl[42] r1_wl[43] r1_wl[44] r1_wl[45] r1_wl[46] r1_wl[47] r1_wl[48] r1_wl[49] r1_wl[50] r1_wl[51] r1_wl[52] r1_wl[53] r1_wl[54] r1_wl[55] r1_wl[56] r1_wl[57] r1_wl[58] r1_wl[59] r1_wl[60] r1_wl[61] r1_wl[62] r1_wl[63] r1_wl[64] r1_wl[65] r1_wl[66] r1_wl[67] r1_wl[68] r1_wl[69] r1_wl[70] r1_wl[71] r1_wl[72] r1_wl[73] r1_wl[74] r1_wl[75] r1_wl[76] r1_wl[77] r1_wl[78] r1_wl[79] r1_wl[80] r1_wl[81] r1_wl[82] r1_wl[83] r1_wl[84] r1_wl[85] r1_wl[86] r1_wl[87] r1_wl[88] r1_wl[89] r1_wl[90] r1_wl[91] r1_wl[92] r1_wl[93] r1_wl[94] r1_wl[95] r1_wl[96] r1_wl[97] r1_wl[98] r1_wl[99] r1_wl[100] r1_wl[101] r1_wl[102] r1_wl[103] r1_wl[104] r1_wl[105] r1_wl[106] r1_wl[107] r1_wl[108] r1_wl[109] r1_wl[110] r1_wl[111] r1_wl[112] r1_wl[113] r1_wl[114] r1_wl[115] r1_wl[116] r1_wl[117] r1_wl[118] r1_wl[119] r1_wl[120] r1_wl[121] r1_wl[122] r1_wl[123] r1_wl[124] r1_wl[125] r1_wl[126] r1_wl[127] r1_grp[0] r1_grp[1] r1_grp[2] r1_grp[3] r1_grp[4] r1_grp[5] r1_grp[6] r1_grp[7]
Xw0_a0_inv VDD VSS w0_addr[0] w0_a0_n detronyx_12t_ctrl_inv_rc7
Xw0_a1_inv VDD VSS w0_addr[1] w0_a1_n detronyx_12t_ctrl_inv_rc7
Xw0_a2_inv VDD VSS w0_addr[2] w0_a2_n detronyx_12t_ctrl_inv_rc7
Xw0_a3_inv VDD VSS w0_addr[3] w0_a3_n detronyx_12t_ctrl_inv_rc7
Xw0_a4_inv VDD VSS w0_addr[4] w0_a4_n detronyx_12t_ctrl_inv_rc7
Xw0_a5_inv VDD VSS w0_addr[5] w0_a5_n detronyx_12t_ctrl_inv_rc7
Xw0_a6_inv VDD VSS w0_addr[6] w0_a6_n detronyx_12t_ctrl_inv_rc7
Xw0_a7_inv VDD VSS w0_addr[7] w0_a7_n detronyx_12t_ctrl_inv_rc7
Xw0_a8_inv VDD VSS w0_addr[8] w0_a8_n detronyx_12t_ctrl_inv_rc7
Xw0_a9_inv VDD VSS w0_addr[9] w0_a9_n detronyx_12t_ctrl_inv_rc7
Xw0_grp0_nand3 VDD VSS w0_a0_n w0_a1_n w0_a2_n w0_grp0_n detronyx_12t_ctrl_nand3_rc7
Xw0_grp0_inv VDD VSS w0_grp0_n w0_grp[0] detronyx_12t_ctrl_inv_rc7
Xw0_grp1_nand3 VDD VSS w0_addr[0] w0_a1_n w0_a2_n w0_grp1_n detronyx_12t_ctrl_nand3_rc7
Xw0_grp1_inv VDD VSS w0_grp1_n w0_grp[1] detronyx_12t_ctrl_inv_rc7
Xw0_grp2_nand3 VDD VSS w0_a0_n w0_addr[1] w0_a2_n w0_grp2_n detronyx_12t_ctrl_nand3_rc7
Xw0_grp2_inv VDD VSS w0_grp2_n w0_grp[2] detronyx_12t_ctrl_inv_rc7
Xw0_grp3_nand3 VDD VSS w0_addr[0] w0_addr[1] w0_a2_n w0_grp3_n detronyx_12t_ctrl_nand3_rc7
Xw0_grp3_inv VDD VSS w0_grp3_n w0_grp[3] detronyx_12t_ctrl_inv_rc7
Xw0_grp4_nand3 VDD VSS w0_a0_n w0_a1_n w0_addr[2] w0_grp4_n detronyx_12t_ctrl_nand3_rc7
Xw0_grp4_inv VDD VSS w0_grp4_n w0_grp[4] detronyx_12t_ctrl_inv_rc7
Xw0_grp5_nand3 VDD VSS w0_addr[0] w0_a1_n w0_addr[2] w0_grp5_n detronyx_12t_ctrl_nand3_rc7
Xw0_grp5_inv VDD VSS w0_grp5_n w0_grp[5] detronyx_12t_ctrl_inv_rc7
Xw0_grp6_nand3 VDD VSS w0_a0_n w0_addr[1] w0_addr[2] w0_grp6_n detronyx_12t_ctrl_nand3_rc7
Xw0_grp6_inv VDD VSS w0_grp6_n w0_grp[6] detronyx_12t_ctrl_inv_rc7
Xw0_grp7_nand3 VDD VSS w0_addr[0] w0_addr[1] w0_addr[2] w0_grp7_n detronyx_12t_ctrl_nand3_rc7
Xw0_grp7_inv VDD VSS w0_grp7_n w0_grp[7] detronyx_12t_ctrl_inv_rc7
Xw0_pd0_0_nand2 VDD VSS w0_a3_n w0_a4_n w0_pd0_0_n detronyx_12t_ctrl_nand2_rc7
Xw0_pd0_0_inv VDD VSS w0_pd0_0_n w0_pd0_0 detronyx_12t_ctrl_inv_rc7
Xw0_pd0_1_nand2 VDD VSS w0_addr[3] w0_a4_n w0_pd0_1_n detronyx_12t_ctrl_nand2_rc7
Xw0_pd0_1_inv VDD VSS w0_pd0_1_n w0_pd0_1 detronyx_12t_ctrl_inv_rc7
Xw0_pd0_2_nand2 VDD VSS w0_a3_n w0_addr[4] w0_pd0_2_n detronyx_12t_ctrl_nand2_rc7
Xw0_pd0_2_inv VDD VSS w0_pd0_2_n w0_pd0_2 detronyx_12t_ctrl_inv_rc7
Xw0_pd0_3_nand2 VDD VSS w0_addr[3] w0_addr[4] w0_pd0_3_n detronyx_12t_ctrl_nand2_rc7
Xw0_pd0_3_inv VDD VSS w0_pd0_3_n w0_pd0_3 detronyx_12t_ctrl_inv_rc7
Xw0_pd1_0_nand2 VDD VSS w0_a5_n w0_a6_n w0_pd1_0_n detronyx_12t_ctrl_nand2_rc7
Xw0_pd1_0_inv VDD VSS w0_pd1_0_n w0_pd1_0 detronyx_12t_ctrl_inv_rc7
Xw0_pd1_1_nand2 VDD VSS w0_addr[5] w0_a6_n w0_pd1_1_n detronyx_12t_ctrl_nand2_rc7
Xw0_pd1_1_inv VDD VSS w0_pd1_1_n w0_pd1_1 detronyx_12t_ctrl_inv_rc7
Xw0_pd1_2_nand2 VDD VSS w0_a5_n w0_addr[6] w0_pd1_2_n detronyx_12t_ctrl_nand2_rc7
Xw0_pd1_2_inv VDD VSS w0_pd1_2_n w0_pd1_2 detronyx_12t_ctrl_inv_rc7
Xw0_pd1_3_nand2 VDD VSS w0_addr[5] w0_addr[6] w0_pd1_3_n detronyx_12t_ctrl_nand2_rc7
Xw0_pd1_3_inv VDD VSS w0_pd1_3_n w0_pd1_3 detronyx_12t_ctrl_inv_rc7
Xw0_pd2_0_nand3 VDD VSS w0_a7_n w0_a8_n w0_a9_n w0_pd2_0_n detronyx_12t_ctrl_nand3_rc7
Xw0_pd2_0_inv VDD VSS w0_pd2_0_n w0_pd2_0 detronyx_12t_ctrl_inv_rc7
Xw0_pd2_1_nand3 VDD VSS w0_addr[7] w0_a8_n w0_a9_n w0_pd2_1_n detronyx_12t_ctrl_nand3_rc7
Xw0_pd2_1_inv VDD VSS w0_pd2_1_n w0_pd2_1 detronyx_12t_ctrl_inv_rc7
Xw0_pd2_2_nand3 VDD VSS w0_a7_n w0_addr[8] w0_a9_n w0_pd2_2_n detronyx_12t_ctrl_nand3_rc7
Xw0_pd2_2_inv VDD VSS w0_pd2_2_n w0_pd2_2 detronyx_12t_ctrl_inv_rc7
Xw0_pd2_3_nand3 VDD VSS w0_addr[7] w0_addr[8] w0_a9_n w0_pd2_3_n detronyx_12t_ctrl_nand3_rc7
Xw0_pd2_3_inv VDD VSS w0_pd2_3_n w0_pd2_3 detronyx_12t_ctrl_inv_rc7
Xw0_pd2_4_nand3 VDD VSS w0_a7_n w0_a8_n w0_addr[9] w0_pd2_4_n detronyx_12t_ctrl_nand3_rc7
Xw0_pd2_4_inv VDD VSS w0_pd2_4_n w0_pd2_4 detronyx_12t_ctrl_inv_rc7
Xw0_pd2_5_nand3 VDD VSS w0_addr[7] w0_a8_n w0_addr[9] w0_pd2_5_n detronyx_12t_ctrl_nand3_rc7
Xw0_pd2_5_inv VDD VSS w0_pd2_5_n w0_pd2_5 detronyx_12t_ctrl_inv_rc7
Xw0_pd2_6_nand3 VDD VSS w0_a7_n w0_addr[8] w0_addr[9] w0_pd2_6_n detronyx_12t_ctrl_nand3_rc7
Xw0_pd2_6_inv VDD VSS w0_pd2_6_n w0_pd2_6 detronyx_12t_ctrl_inv_rc7
Xw0_pd2_7_nand3 VDD VSS w0_addr[7] w0_addr[8] w0_addr[9] w0_pd2_7_n detronyx_12t_ctrl_nand3_rc7
Xw0_pd2_7_inv VDD VSS w0_pd2_7_n w0_pd2_7 detronyx_12t_ctrl_inv_rc7
Xw0_row0000_sel VDD VSS w0_pd0_0 w0_pd1_0 w0_pd2_0 w0_en w0_wl[0] detronyx_12t_ctrl_row_select4_wlbuf_rc7
Xw0_row0001_sel VDD VSS w0_pd0_1 w0_pd1_0 w0_pd2_0 w0_en w0_wl[1] detronyx_12t_ctrl_row_select4_wlbuf_rc7
Xw0_row0002_sel VDD VSS w0_pd0_2 w0_pd1_0 w0_pd2_0 w0_en w0_wl[2] detronyx_12t_ctrl_row_select4_wlbuf_rc7
Xw0_row0003_sel VDD VSS w0_pd0_3 w0_pd1_0 w0_pd2_0 w0_en w0_wl[3] detronyx_12t_ctrl_row_select4_wlbuf_rc7
Xw0_row0004_sel VDD VSS w0_pd0_0 w0_pd1_1 w0_pd2_0 w0_en w0_wl[4] detronyx_12t_ctrl_row_select4_wlbuf_rc7
Xw0_row0005_sel VDD VSS w0_pd0_1 w0_pd1_1 w0_pd2_0 w0_en w0_wl[5] detronyx_12t_ctrl_row_select4_wlbuf_rc7
Xw0_row0006_sel VDD VSS w0_pd0_2 w0_pd1_1 w0_pd2_0 w0_en w0_wl[6] detronyx_12t_ctrl_row_select4_wlbuf_rc7
Xw0_row0007_sel VDD VSS w0_pd0_3 w0_pd1_1 w0_pd2_0 w0_en w0_wl[7] detronyx_12t_ctrl_row_select4_wlbuf_rc7
Xw0_row0008_sel VDD VSS w0_pd0_0 w0_pd1_2 w0_pd2_0 w0_en w0_wl[8] detronyx_12t_ctrl_row_select4_wlbuf_rc7
Xw0_row0009_sel VDD VSS w0_pd0_1 w0_pd1_2 w0_pd2_0 w0_en w0_wl[9] detronyx_12t_ctrl_row_select4_wlbuf_rc7
Xw0_row0010_sel VDD VSS w0_pd0_2 w0_pd1_2 w0_pd2_0 w0_en w0_wl[10] detronyx_12t_ctrl_row_select4_wlbuf_rc7
Xw0_row0011_sel VDD VSS w0_pd0_3 w0_pd1_2 w0_pd2_0 w0_en w0_wl[11] detronyx_12t_ctrl_row_select4_wlbuf_rc7
Xw0_row0012_sel VDD VSS w0_pd0_0 w0_pd1_3 w0_pd2_0 w0_en w0_wl[12] detronyx_12t_ctrl_row_select4_wlbuf_rc7
Xw0_row0013_sel VDD VSS w0_pd0_1 w0_pd1_3 w0_pd2_0 w0_en w0_wl[13] detronyx_12t_ctrl_row_select4_wlbuf_rc7
Xw0_row0014_sel VDD VSS w0_pd0_2 w0_pd1_3 w0_pd2_0 w0_en w0_wl[14] detronyx_12t_ctrl_row_select4_wlbuf_rc7
Xw0_row0015_sel VDD VSS w0_pd0_3 w0_pd1_3 w0_pd2_0 w0_en w0_wl[15] detronyx_12t_ctrl_row_select4_wlbuf_rc7
Xw0_row0016_sel VDD VSS w0_pd0_0 w0_pd1_0 w0_pd2_1 w0_en w0_wl[16] detronyx_12t_ctrl_row_select4_wlbuf_rc7
Xw0_row0017_sel VDD VSS w0_pd0_1 w0_pd1_0 w0_pd2_1 w0_en w0_wl[17] detronyx_12t_ctrl_row_select4_wlbuf_rc7
Xw0_row0018_sel VDD VSS w0_pd0_2 w0_pd1_0 w0_pd2_1 w0_en w0_wl[18] detronyx_12t_ctrl_row_select4_wlbuf_rc7
Xw0_row0019_sel VDD VSS w0_pd0_3 w0_pd1_0 w0_pd2_1 w0_en w0_wl[19] detronyx_12t_ctrl_row_select4_wlbuf_rc7
Xw0_row0020_sel VDD VSS w0_pd0_0 w0_pd1_1 w0_pd2_1 w0_en w0_wl[20] detronyx_12t_ctrl_row_select4_wlbuf_rc7
Xw0_row0021_sel VDD VSS w0_pd0_1 w0_pd1_1 w0_pd2_1 w0_en w0_wl[21] detronyx_12t_ctrl_row_select4_wlbuf_rc7
Xw0_row0022_sel VDD VSS w0_pd0_2 w0_pd1_1 w0_pd2_1 w0_en w0_wl[22] detronyx_12t_ctrl_row_select4_wlbuf_rc7
Xw0_row0023_sel VDD VSS w0_pd0_3 w0_pd1_1 w0_pd2_1 w0_en w0_wl[23] detronyx_12t_ctrl_row_select4_wlbuf_rc7
Xw0_row0024_sel VDD VSS w0_pd0_0 w0_pd1_2 w0_pd2_1 w0_en w0_wl[24] detronyx_12t_ctrl_row_select4_wlbuf_rc7
Xw0_row0025_sel VDD VSS w0_pd0_1 w0_pd1_2 w0_pd2_1 w0_en w0_wl[25] detronyx_12t_ctrl_row_select4_wlbuf_rc7
Xw0_row0026_sel VDD VSS w0_pd0_2 w0_pd1_2 w0_pd2_1 w0_en w0_wl[26] detronyx_12t_ctrl_row_select4_wlbuf_rc7
Xw0_row0027_sel VDD VSS w0_pd0_3 w0_pd1_2 w0_pd2_1 w0_en w0_wl[27] detronyx_12t_ctrl_row_select4_wlbuf_rc7
Xw0_row0028_sel VDD VSS w0_pd0_0 w0_pd1_3 w0_pd2_1 w0_en w0_wl[28] detronyx_12t_ctrl_row_select4_wlbuf_rc7
Xw0_row0029_sel VDD VSS w0_pd0_1 w0_pd1_3 w0_pd2_1 w0_en w0_wl[29] detronyx_12t_ctrl_row_select4_wlbuf_rc7
Xw0_row0030_sel VDD VSS w0_pd0_2 w0_pd1_3 w0_pd2_1 w0_en w0_wl[30] detronyx_12t_ctrl_row_select4_wlbuf_rc7
Xw0_row0031_sel VDD VSS w0_pd0_3 w0_pd1_3 w0_pd2_1 w0_en w0_wl[31] detronyx_12t_ctrl_row_select4_wlbuf_rc7
Xw0_row0032_sel VDD VSS w0_pd0_0 w0_pd1_0 w0_pd2_2 w0_en w0_wl[32] detronyx_12t_ctrl_row_select4_wlbuf_rc7
Xw0_row0033_sel VDD VSS w0_pd0_1 w0_pd1_0 w0_pd2_2 w0_en w0_wl[33] detronyx_12t_ctrl_row_select4_wlbuf_rc7
Xw0_row0034_sel VDD VSS w0_pd0_2 w0_pd1_0 w0_pd2_2 w0_en w0_wl[34] detronyx_12t_ctrl_row_select4_wlbuf_rc7
Xw0_row0035_sel VDD VSS w0_pd0_3 w0_pd1_0 w0_pd2_2 w0_en w0_wl[35] detronyx_12t_ctrl_row_select4_wlbuf_rc7
Xw0_row0036_sel VDD VSS w0_pd0_0 w0_pd1_1 w0_pd2_2 w0_en w0_wl[36] detronyx_12t_ctrl_row_select4_wlbuf_rc7
Xw0_row0037_sel VDD VSS w0_pd0_1 w0_pd1_1 w0_pd2_2 w0_en w0_wl[37] detronyx_12t_ctrl_row_select4_wlbuf_rc7
Xw0_row0038_sel VDD VSS w0_pd0_2 w0_pd1_1 w0_pd2_2 w0_en w0_wl[38] detronyx_12t_ctrl_row_select4_wlbuf_rc7
Xw0_row0039_sel VDD VSS w0_pd0_3 w0_pd1_1 w0_pd2_2 w0_en w0_wl[39] detronyx_12t_ctrl_row_select4_wlbuf_rc7
Xw0_row0040_sel VDD VSS w0_pd0_0 w0_pd1_2 w0_pd2_2 w0_en w0_wl[40] detronyx_12t_ctrl_row_select4_wlbuf_rc7
Xw0_row0041_sel VDD VSS w0_pd0_1 w0_pd1_2 w0_pd2_2 w0_en w0_wl[41] detronyx_12t_ctrl_row_select4_wlbuf_rc7
Xw0_row0042_sel VDD VSS w0_pd0_2 w0_pd1_2 w0_pd2_2 w0_en w0_wl[42] detronyx_12t_ctrl_row_select4_wlbuf_rc7
Xw0_row0043_sel VDD VSS w0_pd0_3 w0_pd1_2 w0_pd2_2 w0_en w0_wl[43] detronyx_12t_ctrl_row_select4_wlbuf_rc7
Xw0_row0044_sel VDD VSS w0_pd0_0 w0_pd1_3 w0_pd2_2 w0_en w0_wl[44] detronyx_12t_ctrl_row_select4_wlbuf_rc7
Xw0_row0045_sel VDD VSS w0_pd0_1 w0_pd1_3 w0_pd2_2 w0_en w0_wl[45] detronyx_12t_ctrl_row_select4_wlbuf_rc7
Xw0_row0046_sel VDD VSS w0_pd0_2 w0_pd1_3 w0_pd2_2 w0_en w0_wl[46] detronyx_12t_ctrl_row_select4_wlbuf_rc7
Xw0_row0047_sel VDD VSS w0_pd0_3 w0_pd1_3 w0_pd2_2 w0_en w0_wl[47] detronyx_12t_ctrl_row_select4_wlbuf_rc7
Xw0_row0048_sel VDD VSS w0_pd0_0 w0_pd1_0 w0_pd2_3 w0_en w0_wl[48] detronyx_12t_ctrl_row_select4_wlbuf_rc7
Xw0_row0049_sel VDD VSS w0_pd0_1 w0_pd1_0 w0_pd2_3 w0_en w0_wl[49] detronyx_12t_ctrl_row_select4_wlbuf_rc7
Xw0_row0050_sel VDD VSS w0_pd0_2 w0_pd1_0 w0_pd2_3 w0_en w0_wl[50] detronyx_12t_ctrl_row_select4_wlbuf_rc7
Xw0_row0051_sel VDD VSS w0_pd0_3 w0_pd1_0 w0_pd2_3 w0_en w0_wl[51] detronyx_12t_ctrl_row_select4_wlbuf_rc7
Xw0_row0052_sel VDD VSS w0_pd0_0 w0_pd1_1 w0_pd2_3 w0_en w0_wl[52] detronyx_12t_ctrl_row_select4_wlbuf_rc7
Xw0_row0053_sel VDD VSS w0_pd0_1 w0_pd1_1 w0_pd2_3 w0_en w0_wl[53] detronyx_12t_ctrl_row_select4_wlbuf_rc7
Xw0_row0054_sel VDD VSS w0_pd0_2 w0_pd1_1 w0_pd2_3 w0_en w0_wl[54] detronyx_12t_ctrl_row_select4_wlbuf_rc7
Xw0_row0055_sel VDD VSS w0_pd0_3 w0_pd1_1 w0_pd2_3 w0_en w0_wl[55] detronyx_12t_ctrl_row_select4_wlbuf_rc7
Xw0_row0056_sel VDD VSS w0_pd0_0 w0_pd1_2 w0_pd2_3 w0_en w0_wl[56] detronyx_12t_ctrl_row_select4_wlbuf_rc7
Xw0_row0057_sel VDD VSS w0_pd0_1 w0_pd1_2 w0_pd2_3 w0_en w0_wl[57] detronyx_12t_ctrl_row_select4_wlbuf_rc7
Xw0_row0058_sel VDD VSS w0_pd0_2 w0_pd1_2 w0_pd2_3 w0_en w0_wl[58] detronyx_12t_ctrl_row_select4_wlbuf_rc7
Xw0_row0059_sel VDD VSS w0_pd0_3 w0_pd1_2 w0_pd2_3 w0_en w0_wl[59] detronyx_12t_ctrl_row_select4_wlbuf_rc7
Xw0_row0060_sel VDD VSS w0_pd0_0 w0_pd1_3 w0_pd2_3 w0_en w0_wl[60] detronyx_12t_ctrl_row_select4_wlbuf_rc7
Xw0_row0061_sel VDD VSS w0_pd0_1 w0_pd1_3 w0_pd2_3 w0_en w0_wl[61] detronyx_12t_ctrl_row_select4_wlbuf_rc7
Xw0_row0062_sel VDD VSS w0_pd0_2 w0_pd1_3 w0_pd2_3 w0_en w0_wl[62] detronyx_12t_ctrl_row_select4_wlbuf_rc7
Xw0_row0063_sel VDD VSS w0_pd0_3 w0_pd1_3 w0_pd2_3 w0_en w0_wl[63] detronyx_12t_ctrl_row_select4_wlbuf_rc7
Xw0_row0064_sel VDD VSS w0_pd0_0 w0_pd1_0 w0_pd2_4 w0_en w0_wl[64] detronyx_12t_ctrl_row_select4_wlbuf_rc7
Xw0_row0065_sel VDD VSS w0_pd0_1 w0_pd1_0 w0_pd2_4 w0_en w0_wl[65] detronyx_12t_ctrl_row_select4_wlbuf_rc7
Xw0_row0066_sel VDD VSS w0_pd0_2 w0_pd1_0 w0_pd2_4 w0_en w0_wl[66] detronyx_12t_ctrl_row_select4_wlbuf_rc7
Xw0_row0067_sel VDD VSS w0_pd0_3 w0_pd1_0 w0_pd2_4 w0_en w0_wl[67] detronyx_12t_ctrl_row_select4_wlbuf_rc7
Xw0_row0068_sel VDD VSS w0_pd0_0 w0_pd1_1 w0_pd2_4 w0_en w0_wl[68] detronyx_12t_ctrl_row_select4_wlbuf_rc7
Xw0_row0069_sel VDD VSS w0_pd0_1 w0_pd1_1 w0_pd2_4 w0_en w0_wl[69] detronyx_12t_ctrl_row_select4_wlbuf_rc7
Xw0_row0070_sel VDD VSS w0_pd0_2 w0_pd1_1 w0_pd2_4 w0_en w0_wl[70] detronyx_12t_ctrl_row_select4_wlbuf_rc7
Xw0_row0071_sel VDD VSS w0_pd0_3 w0_pd1_1 w0_pd2_4 w0_en w0_wl[71] detronyx_12t_ctrl_row_select4_wlbuf_rc7
Xw0_row0072_sel VDD VSS w0_pd0_0 w0_pd1_2 w0_pd2_4 w0_en w0_wl[72] detronyx_12t_ctrl_row_select4_wlbuf_rc7
Xw0_row0073_sel VDD VSS w0_pd0_1 w0_pd1_2 w0_pd2_4 w0_en w0_wl[73] detronyx_12t_ctrl_row_select4_wlbuf_rc7
Xw0_row0074_sel VDD VSS w0_pd0_2 w0_pd1_2 w0_pd2_4 w0_en w0_wl[74] detronyx_12t_ctrl_row_select4_wlbuf_rc7
Xw0_row0075_sel VDD VSS w0_pd0_3 w0_pd1_2 w0_pd2_4 w0_en w0_wl[75] detronyx_12t_ctrl_row_select4_wlbuf_rc7
Xw0_row0076_sel VDD VSS w0_pd0_0 w0_pd1_3 w0_pd2_4 w0_en w0_wl[76] detronyx_12t_ctrl_row_select4_wlbuf_rc7
Xw0_row0077_sel VDD VSS w0_pd0_1 w0_pd1_3 w0_pd2_4 w0_en w0_wl[77] detronyx_12t_ctrl_row_select4_wlbuf_rc7
Xw0_row0078_sel VDD VSS w0_pd0_2 w0_pd1_3 w0_pd2_4 w0_en w0_wl[78] detronyx_12t_ctrl_row_select4_wlbuf_rc7
Xw0_row0079_sel VDD VSS w0_pd0_3 w0_pd1_3 w0_pd2_4 w0_en w0_wl[79] detronyx_12t_ctrl_row_select4_wlbuf_rc7
Xw0_row0080_sel VDD VSS w0_pd0_0 w0_pd1_0 w0_pd2_5 w0_en w0_wl[80] detronyx_12t_ctrl_row_select4_wlbuf_rc7
Xw0_row0081_sel VDD VSS w0_pd0_1 w0_pd1_0 w0_pd2_5 w0_en w0_wl[81] detronyx_12t_ctrl_row_select4_wlbuf_rc7
Xw0_row0082_sel VDD VSS w0_pd0_2 w0_pd1_0 w0_pd2_5 w0_en w0_wl[82] detronyx_12t_ctrl_row_select4_wlbuf_rc7
Xw0_row0083_sel VDD VSS w0_pd0_3 w0_pd1_0 w0_pd2_5 w0_en w0_wl[83] detronyx_12t_ctrl_row_select4_wlbuf_rc7
Xw0_row0084_sel VDD VSS w0_pd0_0 w0_pd1_1 w0_pd2_5 w0_en w0_wl[84] detronyx_12t_ctrl_row_select4_wlbuf_rc7
Xw0_row0085_sel VDD VSS w0_pd0_1 w0_pd1_1 w0_pd2_5 w0_en w0_wl[85] detronyx_12t_ctrl_row_select4_wlbuf_rc7
Xw0_row0086_sel VDD VSS w0_pd0_2 w0_pd1_1 w0_pd2_5 w0_en w0_wl[86] detronyx_12t_ctrl_row_select4_wlbuf_rc7
Xw0_row0087_sel VDD VSS w0_pd0_3 w0_pd1_1 w0_pd2_5 w0_en w0_wl[87] detronyx_12t_ctrl_row_select4_wlbuf_rc7
Xw0_row0088_sel VDD VSS w0_pd0_0 w0_pd1_2 w0_pd2_5 w0_en w0_wl[88] detronyx_12t_ctrl_row_select4_wlbuf_rc7
Xw0_row0089_sel VDD VSS w0_pd0_1 w0_pd1_2 w0_pd2_5 w0_en w0_wl[89] detronyx_12t_ctrl_row_select4_wlbuf_rc7
Xw0_row0090_sel VDD VSS w0_pd0_2 w0_pd1_2 w0_pd2_5 w0_en w0_wl[90] detronyx_12t_ctrl_row_select4_wlbuf_rc7
Xw0_row0091_sel VDD VSS w0_pd0_3 w0_pd1_2 w0_pd2_5 w0_en w0_wl[91] detronyx_12t_ctrl_row_select4_wlbuf_rc7
Xw0_row0092_sel VDD VSS w0_pd0_0 w0_pd1_3 w0_pd2_5 w0_en w0_wl[92] detronyx_12t_ctrl_row_select4_wlbuf_rc7
Xw0_row0093_sel VDD VSS w0_pd0_1 w0_pd1_3 w0_pd2_5 w0_en w0_wl[93] detronyx_12t_ctrl_row_select4_wlbuf_rc7
Xw0_row0094_sel VDD VSS w0_pd0_2 w0_pd1_3 w0_pd2_5 w0_en w0_wl[94] detronyx_12t_ctrl_row_select4_wlbuf_rc7
Xw0_row0095_sel VDD VSS w0_pd0_3 w0_pd1_3 w0_pd2_5 w0_en w0_wl[95] detronyx_12t_ctrl_row_select4_wlbuf_rc7
Xw0_row0096_sel VDD VSS w0_pd0_0 w0_pd1_0 w0_pd2_6 w0_en w0_wl[96] detronyx_12t_ctrl_row_select4_wlbuf_rc7
Xw0_row0097_sel VDD VSS w0_pd0_1 w0_pd1_0 w0_pd2_6 w0_en w0_wl[97] detronyx_12t_ctrl_row_select4_wlbuf_rc7
Xw0_row0098_sel VDD VSS w0_pd0_2 w0_pd1_0 w0_pd2_6 w0_en w0_wl[98] detronyx_12t_ctrl_row_select4_wlbuf_rc7
Xw0_row0099_sel VDD VSS w0_pd0_3 w0_pd1_0 w0_pd2_6 w0_en w0_wl[99] detronyx_12t_ctrl_row_select4_wlbuf_rc7
Xw0_row0100_sel VDD VSS w0_pd0_0 w0_pd1_1 w0_pd2_6 w0_en w0_wl[100] detronyx_12t_ctrl_row_select4_wlbuf_rc7
Xw0_row0101_sel VDD VSS w0_pd0_1 w0_pd1_1 w0_pd2_6 w0_en w0_wl[101] detronyx_12t_ctrl_row_select4_wlbuf_rc7
Xw0_row0102_sel VDD VSS w0_pd0_2 w0_pd1_1 w0_pd2_6 w0_en w0_wl[102] detronyx_12t_ctrl_row_select4_wlbuf_rc7
Xw0_row0103_sel VDD VSS w0_pd0_3 w0_pd1_1 w0_pd2_6 w0_en w0_wl[103] detronyx_12t_ctrl_row_select4_wlbuf_rc7
Xw0_row0104_sel VDD VSS w0_pd0_0 w0_pd1_2 w0_pd2_6 w0_en w0_wl[104] detronyx_12t_ctrl_row_select4_wlbuf_rc7
Xw0_row0105_sel VDD VSS w0_pd0_1 w0_pd1_2 w0_pd2_6 w0_en w0_wl[105] detronyx_12t_ctrl_row_select4_wlbuf_rc7
Xw0_row0106_sel VDD VSS w0_pd0_2 w0_pd1_2 w0_pd2_6 w0_en w0_wl[106] detronyx_12t_ctrl_row_select4_wlbuf_rc7
Xw0_row0107_sel VDD VSS w0_pd0_3 w0_pd1_2 w0_pd2_6 w0_en w0_wl[107] detronyx_12t_ctrl_row_select4_wlbuf_rc7
Xw0_row0108_sel VDD VSS w0_pd0_0 w0_pd1_3 w0_pd2_6 w0_en w0_wl[108] detronyx_12t_ctrl_row_select4_wlbuf_rc7
Xw0_row0109_sel VDD VSS w0_pd0_1 w0_pd1_3 w0_pd2_6 w0_en w0_wl[109] detronyx_12t_ctrl_row_select4_wlbuf_rc7
Xw0_row0110_sel VDD VSS w0_pd0_2 w0_pd1_3 w0_pd2_6 w0_en w0_wl[110] detronyx_12t_ctrl_row_select4_wlbuf_rc7
Xw0_row0111_sel VDD VSS w0_pd0_3 w0_pd1_3 w0_pd2_6 w0_en w0_wl[111] detronyx_12t_ctrl_row_select4_wlbuf_rc7
Xw0_row0112_sel VDD VSS w0_pd0_0 w0_pd1_0 w0_pd2_7 w0_en w0_wl[112] detronyx_12t_ctrl_row_select4_wlbuf_rc7
Xw0_row0113_sel VDD VSS w0_pd0_1 w0_pd1_0 w0_pd2_7 w0_en w0_wl[113] detronyx_12t_ctrl_row_select4_wlbuf_rc7
Xw0_row0114_sel VDD VSS w0_pd0_2 w0_pd1_0 w0_pd2_7 w0_en w0_wl[114] detronyx_12t_ctrl_row_select4_wlbuf_rc7
Xw0_row0115_sel VDD VSS w0_pd0_3 w0_pd1_0 w0_pd2_7 w0_en w0_wl[115] detronyx_12t_ctrl_row_select4_wlbuf_rc7
Xw0_row0116_sel VDD VSS w0_pd0_0 w0_pd1_1 w0_pd2_7 w0_en w0_wl[116] detronyx_12t_ctrl_row_select4_wlbuf_rc7
Xw0_row0117_sel VDD VSS w0_pd0_1 w0_pd1_1 w0_pd2_7 w0_en w0_wl[117] detronyx_12t_ctrl_row_select4_wlbuf_rc7
Xw0_row0118_sel VDD VSS w0_pd0_2 w0_pd1_1 w0_pd2_7 w0_en w0_wl[118] detronyx_12t_ctrl_row_select4_wlbuf_rc7
Xw0_row0119_sel VDD VSS w0_pd0_3 w0_pd1_1 w0_pd2_7 w0_en w0_wl[119] detronyx_12t_ctrl_row_select4_wlbuf_rc7
Xw0_row0120_sel VDD VSS w0_pd0_0 w0_pd1_2 w0_pd2_7 w0_en w0_wl[120] detronyx_12t_ctrl_row_select4_wlbuf_rc7
Xw0_row0121_sel VDD VSS w0_pd0_1 w0_pd1_2 w0_pd2_7 w0_en w0_wl[121] detronyx_12t_ctrl_row_select4_wlbuf_rc7
Xw0_row0122_sel VDD VSS w0_pd0_2 w0_pd1_2 w0_pd2_7 w0_en w0_wl[122] detronyx_12t_ctrl_row_select4_wlbuf_rc7
Xw0_row0123_sel VDD VSS w0_pd0_3 w0_pd1_2 w0_pd2_7 w0_en w0_wl[123] detronyx_12t_ctrl_row_select4_wlbuf_rc7
Xw0_row0124_sel VDD VSS w0_pd0_0 w0_pd1_3 w0_pd2_7 w0_en w0_wl[124] detronyx_12t_ctrl_row_select4_wlbuf_rc7
Xw0_row0125_sel VDD VSS w0_pd0_1 w0_pd1_3 w0_pd2_7 w0_en w0_wl[125] detronyx_12t_ctrl_row_select4_wlbuf_rc7
Xw0_row0126_sel VDD VSS w0_pd0_2 w0_pd1_3 w0_pd2_7 w0_en w0_wl[126] detronyx_12t_ctrl_row_select4_wlbuf_rc7
Xw0_row0127_sel VDD VSS w0_pd0_3 w0_pd1_3 w0_pd2_7 w0_en w0_wl[127] detronyx_12t_ctrl_row_select4_wlbuf_rc7
Xw1_a0_inv VDD VSS w1_addr[0] w1_a0_n detronyx_12t_ctrl_inv_rc7
Xw1_a1_inv VDD VSS w1_addr[1] w1_a1_n detronyx_12t_ctrl_inv_rc7
Xw1_a2_inv VDD VSS w1_addr[2] w1_a2_n detronyx_12t_ctrl_inv_rc7
Xw1_a3_inv VDD VSS w1_addr[3] w1_a3_n detronyx_12t_ctrl_inv_rc7
Xw1_a4_inv VDD VSS w1_addr[4] w1_a4_n detronyx_12t_ctrl_inv_rc7
Xw1_a5_inv VDD VSS w1_addr[5] w1_a5_n detronyx_12t_ctrl_inv_rc7
Xw1_a6_inv VDD VSS w1_addr[6] w1_a6_n detronyx_12t_ctrl_inv_rc7
Xw1_a7_inv VDD VSS w1_addr[7] w1_a7_n detronyx_12t_ctrl_inv_rc7
Xw1_a8_inv VDD VSS w1_addr[8] w1_a8_n detronyx_12t_ctrl_inv_rc7
Xw1_a9_inv VDD VSS w1_addr[9] w1_a9_n detronyx_12t_ctrl_inv_rc7
Xw1_grp0_nand3 VDD VSS w1_a0_n w1_a1_n w1_a2_n w1_grp0_n detronyx_12t_ctrl_nand3_rc7
Xw1_grp0_inv VDD VSS w1_grp0_n w1_grp[0] detronyx_12t_ctrl_inv_rc7
Xw1_grp1_nand3 VDD VSS w1_addr[0] w1_a1_n w1_a2_n w1_grp1_n detronyx_12t_ctrl_nand3_rc7
Xw1_grp1_inv VDD VSS w1_grp1_n w1_grp[1] detronyx_12t_ctrl_inv_rc7
Xw1_grp2_nand3 VDD VSS w1_a0_n w1_addr[1] w1_a2_n w1_grp2_n detronyx_12t_ctrl_nand3_rc7
Xw1_grp2_inv VDD VSS w1_grp2_n w1_grp[2] detronyx_12t_ctrl_inv_rc7
Xw1_grp3_nand3 VDD VSS w1_addr[0] w1_addr[1] w1_a2_n w1_grp3_n detronyx_12t_ctrl_nand3_rc7
Xw1_grp3_inv VDD VSS w1_grp3_n w1_grp[3] detronyx_12t_ctrl_inv_rc7
Xw1_grp4_nand3 VDD VSS w1_a0_n w1_a1_n w1_addr[2] w1_grp4_n detronyx_12t_ctrl_nand3_rc7
Xw1_grp4_inv VDD VSS w1_grp4_n w1_grp[4] detronyx_12t_ctrl_inv_rc7
Xw1_grp5_nand3 VDD VSS w1_addr[0] w1_a1_n w1_addr[2] w1_grp5_n detronyx_12t_ctrl_nand3_rc7
Xw1_grp5_inv VDD VSS w1_grp5_n w1_grp[5] detronyx_12t_ctrl_inv_rc7
Xw1_grp6_nand3 VDD VSS w1_a0_n w1_addr[1] w1_addr[2] w1_grp6_n detronyx_12t_ctrl_nand3_rc7
Xw1_grp6_inv VDD VSS w1_grp6_n w1_grp[6] detronyx_12t_ctrl_inv_rc7
Xw1_grp7_nand3 VDD VSS w1_addr[0] w1_addr[1] w1_addr[2] w1_grp7_n detronyx_12t_ctrl_nand3_rc7
Xw1_grp7_inv VDD VSS w1_grp7_n w1_grp[7] detronyx_12t_ctrl_inv_rc7
Xw1_pd0_0_nand2 VDD VSS w1_a3_n w1_a4_n w1_pd0_0_n detronyx_12t_ctrl_nand2_rc7
Xw1_pd0_0_inv VDD VSS w1_pd0_0_n w1_pd0_0 detronyx_12t_ctrl_inv_rc7
Xw1_pd0_1_nand2 VDD VSS w1_addr[3] w1_a4_n w1_pd0_1_n detronyx_12t_ctrl_nand2_rc7
Xw1_pd0_1_inv VDD VSS w1_pd0_1_n w1_pd0_1 detronyx_12t_ctrl_inv_rc7
Xw1_pd0_2_nand2 VDD VSS w1_a3_n w1_addr[4] w1_pd0_2_n detronyx_12t_ctrl_nand2_rc7
Xw1_pd0_2_inv VDD VSS w1_pd0_2_n w1_pd0_2 detronyx_12t_ctrl_inv_rc7
Xw1_pd0_3_nand2 VDD VSS w1_addr[3] w1_addr[4] w1_pd0_3_n detronyx_12t_ctrl_nand2_rc7
Xw1_pd0_3_inv VDD VSS w1_pd0_3_n w1_pd0_3 detronyx_12t_ctrl_inv_rc7
Xw1_pd1_0_nand2 VDD VSS w1_a5_n w1_a6_n w1_pd1_0_n detronyx_12t_ctrl_nand2_rc7
Xw1_pd1_0_inv VDD VSS w1_pd1_0_n w1_pd1_0 detronyx_12t_ctrl_inv_rc7
Xw1_pd1_1_nand2 VDD VSS w1_addr[5] w1_a6_n w1_pd1_1_n detronyx_12t_ctrl_nand2_rc7
Xw1_pd1_1_inv VDD VSS w1_pd1_1_n w1_pd1_1 detronyx_12t_ctrl_inv_rc7
Xw1_pd1_2_nand2 VDD VSS w1_a5_n w1_addr[6] w1_pd1_2_n detronyx_12t_ctrl_nand2_rc7
Xw1_pd1_2_inv VDD VSS w1_pd1_2_n w1_pd1_2 detronyx_12t_ctrl_inv_rc7
Xw1_pd1_3_nand2 VDD VSS w1_addr[5] w1_addr[6] w1_pd1_3_n detronyx_12t_ctrl_nand2_rc7
Xw1_pd1_3_inv VDD VSS w1_pd1_3_n w1_pd1_3 detronyx_12t_ctrl_inv_rc7
Xw1_pd2_0_nand3 VDD VSS w1_a7_n w1_a8_n w1_a9_n w1_pd2_0_n detronyx_12t_ctrl_nand3_rc7
Xw1_pd2_0_inv VDD VSS w1_pd2_0_n w1_pd2_0 detronyx_12t_ctrl_inv_rc7
Xw1_pd2_1_nand3 VDD VSS w1_addr[7] w1_a8_n w1_a9_n w1_pd2_1_n detronyx_12t_ctrl_nand3_rc7
Xw1_pd2_1_inv VDD VSS w1_pd2_1_n w1_pd2_1 detronyx_12t_ctrl_inv_rc7
Xw1_pd2_2_nand3 VDD VSS w1_a7_n w1_addr[8] w1_a9_n w1_pd2_2_n detronyx_12t_ctrl_nand3_rc7
Xw1_pd2_2_inv VDD VSS w1_pd2_2_n w1_pd2_2 detronyx_12t_ctrl_inv_rc7
Xw1_pd2_3_nand3 VDD VSS w1_addr[7] w1_addr[8] w1_a9_n w1_pd2_3_n detronyx_12t_ctrl_nand3_rc7
Xw1_pd2_3_inv VDD VSS w1_pd2_3_n w1_pd2_3 detronyx_12t_ctrl_inv_rc7
Xw1_pd2_4_nand3 VDD VSS w1_a7_n w1_a8_n w1_addr[9] w1_pd2_4_n detronyx_12t_ctrl_nand3_rc7
Xw1_pd2_4_inv VDD VSS w1_pd2_4_n w1_pd2_4 detronyx_12t_ctrl_inv_rc7
Xw1_pd2_5_nand3 VDD VSS w1_addr[7] w1_a8_n w1_addr[9] w1_pd2_5_n detronyx_12t_ctrl_nand3_rc7
Xw1_pd2_5_inv VDD VSS w1_pd2_5_n w1_pd2_5 detronyx_12t_ctrl_inv_rc7
Xw1_pd2_6_nand3 VDD VSS w1_a7_n w1_addr[8] w1_addr[9] w1_pd2_6_n detronyx_12t_ctrl_nand3_rc7
Xw1_pd2_6_inv VDD VSS w1_pd2_6_n w1_pd2_6 detronyx_12t_ctrl_inv_rc7
Xw1_pd2_7_nand3 VDD VSS w1_addr[7] w1_addr[8] w1_addr[9] w1_pd2_7_n detronyx_12t_ctrl_nand3_rc7
Xw1_pd2_7_inv VDD VSS w1_pd2_7_n w1_pd2_7 detronyx_12t_ctrl_inv_rc7
Xw1_row0000_sel VDD VSS w1_pd0_0 w1_pd1_0 w1_pd2_0 w1_en w1_wl[0] detronyx_12t_ctrl_row_select4_wlbuf_rc7
Xw1_row0001_sel VDD VSS w1_pd0_1 w1_pd1_0 w1_pd2_0 w1_en w1_wl[1] detronyx_12t_ctrl_row_select4_wlbuf_rc7
Xw1_row0002_sel VDD VSS w1_pd0_2 w1_pd1_0 w1_pd2_0 w1_en w1_wl[2] detronyx_12t_ctrl_row_select4_wlbuf_rc7
Xw1_row0003_sel VDD VSS w1_pd0_3 w1_pd1_0 w1_pd2_0 w1_en w1_wl[3] detronyx_12t_ctrl_row_select4_wlbuf_rc7
Xw1_row0004_sel VDD VSS w1_pd0_0 w1_pd1_1 w1_pd2_0 w1_en w1_wl[4] detronyx_12t_ctrl_row_select4_wlbuf_rc7
Xw1_row0005_sel VDD VSS w1_pd0_1 w1_pd1_1 w1_pd2_0 w1_en w1_wl[5] detronyx_12t_ctrl_row_select4_wlbuf_rc7
Xw1_row0006_sel VDD VSS w1_pd0_2 w1_pd1_1 w1_pd2_0 w1_en w1_wl[6] detronyx_12t_ctrl_row_select4_wlbuf_rc7
Xw1_row0007_sel VDD VSS w1_pd0_3 w1_pd1_1 w1_pd2_0 w1_en w1_wl[7] detronyx_12t_ctrl_row_select4_wlbuf_rc7
Xw1_row0008_sel VDD VSS w1_pd0_0 w1_pd1_2 w1_pd2_0 w1_en w1_wl[8] detronyx_12t_ctrl_row_select4_wlbuf_rc7
Xw1_row0009_sel VDD VSS w1_pd0_1 w1_pd1_2 w1_pd2_0 w1_en w1_wl[9] detronyx_12t_ctrl_row_select4_wlbuf_rc7
Xw1_row0010_sel VDD VSS w1_pd0_2 w1_pd1_2 w1_pd2_0 w1_en w1_wl[10] detronyx_12t_ctrl_row_select4_wlbuf_rc7
Xw1_row0011_sel VDD VSS w1_pd0_3 w1_pd1_2 w1_pd2_0 w1_en w1_wl[11] detronyx_12t_ctrl_row_select4_wlbuf_rc7