* gf180mcu_3v3_12t_2r2w_sram_1024x32_stdcell_full_control_matrix
* Row-select/WL-buffer functions expanded into Avalon NAND/INV stdcells.
* gf180mcu_3v3_12t_2r2w_sram_1024x32_stdcell_control_matrix
* Avalon stdcell-mapped digital control matrix for the release package.
.include "../../../third_party/gf180mcu_as_sc_mcu7t3v3/pdk/libs.ref/gf180mcu_as_sc_mcu7t3v3/cdl/gf180mcu_as_sc_mcu7t3v3.cdl"

* RC7 structural custom-gate control matrix for detronyx_12t_2w2r_1024x32_rc6_fullctrl
* Folded contract: 1024 logical rows -> 256 physical WL rows + 4-way group select.
.subckt gf180mcu_3v3_12t_2r2w_sram_1024x32_stdcell_full_control_matrix VDD VSS w0_en w1_en r0_en r1_en write_conflict w0_addr[0] w0_addr[1] w0_addr[2] w0_addr[3] w0_addr[4] w0_addr[5] w0_addr[6] w0_addr[7] w0_addr[8] w0_addr[9] w1_addr[0] w1_addr[1] w1_addr[2] w1_addr[3] w1_addr[4] w1_addr[5] w1_addr[6] w1_addr[7] w1_addr[8] w1_addr[9] r0_addr[0] r0_addr[1] r0_addr[2] r0_addr[3] r0_addr[4] r0_addr[5] r0_addr[6] r0_addr[7] r0_addr[8] r0_addr[9] r1_addr[0] r1_addr[1] r1_addr[2] r1_addr[3] r1_addr[4] r1_addr[5] r1_addr[6] r1_addr[7] r1_addr[8] r1_addr[9] w0_wl[0] w0_wl[1] w0_wl[2] w0_wl[3] w0_wl[4] w0_wl[5] w0_wl[6] w0_wl[7] w0_wl[8] w0_wl[9] w0_wl[10] w0_wl[11] w0_wl[12] w0_wl[13] w0_wl[14] w0_wl[15] w0_wl[16] w0_wl[17] w0_wl[18] w0_wl[19] w0_wl[20] w0_wl[21] w0_wl[22] w0_wl[23] w0_wl[24] w0_wl[25] w0_wl[26] w0_wl[27] w0_wl[28] w0_wl[29] w0_wl[30] w0_wl[31] w0_wl[32] w0_wl[33] w0_wl[34] w0_wl[35] w0_wl[36] w0_wl[37] w0_wl[38] w0_wl[39] w0_wl[40] w0_wl[41] w0_wl[42] w0_wl[43] w0_wl[44] w0_wl[45] w0_wl[46] w0_wl[47] w0_wl[48] w0_wl[49] w0_wl[50] w0_wl[51] w0_wl[52] w0_wl[53] w0_wl[54] w0_wl[55] w0_wl[56] w0_wl[57] w0_wl[58] w0_wl[59] w0_wl[60] w0_wl[61] w0_wl[62] w0_wl[63] w0_wl[64] w0_wl[65] w0_wl[66] w0_wl[67] w0_wl[68] w0_wl[69] w0_wl[70] w0_wl[71] w0_wl[72] w0_wl[73] w0_wl[74] w0_wl[75] w0_wl[76] w0_wl[77] w0_wl[78] w0_wl[79] w0_wl[80] w0_wl[81] w0_wl[82] w0_wl[83] w0_wl[84] w0_wl[85] w0_wl[86] w0_wl[87] w0_wl[88] w0_wl[89] w0_wl[90] w0_wl[91] w0_wl[92] w0_wl[93] w0_wl[94] w0_wl[95] w0_wl[96] w0_wl[97] w0_wl[98] w0_wl[99] w0_wl[100] w0_wl[101] w0_wl[102] w0_wl[103] w0_wl[104] w0_wl[105] w0_wl[106] w0_wl[107] w0_wl[108] w0_wl[109] w0_wl[110] w0_wl[111] w0_wl[112] w0_wl[113] w0_wl[114] w0_wl[115] w0_wl[116] w0_wl[117] w0_wl[118] w0_wl[119] w0_wl[120] w0_wl[121] w0_wl[122] w0_wl[123] w0_wl[124] w0_wl[125] w0_wl[126] w0_wl[127] w0_wl[128] w0_wl[129] w0_wl[130] w0_wl[131] w0_wl[132] w0_wl[133] w0_wl[134] w0_wl[135] w0_wl[136] w0_wl[137] w0_wl[138] w0_wl[139] w0_wl[140] w0_wl[141] w0_wl[142] w0_wl[143] w0_wl[144] w0_wl[145] w0_wl[146] w0_wl[147] w0_wl[148] w0_wl[149] w0_wl[150] w0_wl[151] w0_wl[152] w0_wl[153] w0_wl[154] w0_wl[155] w0_wl[156] w0_wl[157] w0_wl[158] w0_wl[159] w0_wl[160] w0_wl[161] w0_wl[162] w0_wl[163] w0_wl[164] w0_wl[165] w0_wl[166] w0_wl[167] w0_wl[168] w0_wl[169] w0_wl[170] w0_wl[171] w0_wl[172] w0_wl[173] w0_wl[174] w0_wl[175] w0_wl[176] w0_wl[177] w0_wl[178] w0_wl[179] w0_wl[180] w0_wl[181] w0_wl[182] w0_wl[183] w0_wl[184] w0_wl[185] w0_wl[186] w0_wl[187] w0_wl[188] w0_wl[189] w0_wl[190] w0_wl[191] w0_wl[192] w0_wl[193] w0_wl[194] w0_wl[195] w0_wl[196] w0_wl[197] w0_wl[198] w0_wl[199] w0_wl[200] w0_wl[201] w0_wl[202] w0_wl[203] w0_wl[204] w0_wl[205] w0_wl[206] w0_wl[207] w0_wl[208] w0_wl[209] w0_wl[210] w0_wl[211] w0_wl[212] w0_wl[213] w0_wl[214] w0_wl[215] w0_wl[216] w0_wl[217] w0_wl[218] w0_wl[219] w0_wl[220] w0_wl[221] w0_wl[222] w0_wl[223] w0_wl[224] w0_wl[225] w0_wl[226] w0_wl[227] w0_wl[228] w0_wl[229] w0_wl[230] w0_wl[231] w0_wl[232] w0_wl[233] w0_wl[234] w0_wl[235] w0_wl[236] w0_wl[237] w0_wl[238] w0_wl[239] w0_wl[240] w0_wl[241] w0_wl[242] w0_wl[243] w0_wl[244] w0_wl[245] w0_wl[246] w0_wl[247] w0_wl[248] w0_wl[249] w0_wl[250] w0_wl[251] w0_wl[252] w0_wl[253] w0_wl[254] w0_wl[255] w0_grp[0] w0_grp[1] w0_grp[2] w0_grp[3] w1_wl[0] w1_wl[1] w1_wl[2] w1_wl[3] w1_wl[4] w1_wl[5] w1_wl[6] w1_wl[7] w1_wl[8] w1_wl[9] w1_wl[10] w1_wl[11] w1_wl[12] w1_wl[13] w1_wl[14] w1_wl[15] w1_wl[16] w1_wl[17] w1_wl[18] w1_wl[19] w1_wl[20] w1_wl[21] w1_wl[22] w1_wl[23] w1_wl[24] w1_wl[25] w1_wl[26] w1_wl[27] w1_wl[28] w1_wl[29] w1_wl[30] w1_wl[31] w1_wl[32] w1_wl[33] w1_wl[34] w1_wl[35] w1_wl[36] w1_wl[37] w1_wl[38] w1_wl[39] w1_wl[40] w1_wl[41] w1_wl[42] w1_wl[43] w1_wl[44] w1_wl[45] w1_wl[46] w1_wl[47] w1_wl[48] w1_wl[49] w1_wl[50] w1_wl[51] w1_wl[52] w1_wl[53] w1_wl[54] w1_wl[55] w1_wl[56] w1_wl[57] w1_wl[58] w1_wl[59] w1_wl[60] w1_wl[61] w1_wl[62] w1_wl[63] w1_wl[64] w1_wl[65] w1_wl[66] w1_wl[67] w1_wl[68] w1_wl[69] w1_wl[70] w1_wl[71] w1_wl[72] w1_wl[73] w1_wl[74] w1_wl[75] w1_wl[76] w1_wl[77] w1_wl[78] w1_wl[79] w1_wl[80] w1_wl[81] w1_wl[82] w1_wl[83] w1_wl[84] w1_wl[85] w1_wl[86] w1_wl[87] w1_wl[88] w1_wl[89] w1_wl[90] w1_wl[91] w1_wl[92] w1_wl[93] w1_wl[94] w1_wl[95] w1_wl[96] w1_wl[97] w1_wl[98] w1_wl[99] w1_wl[100] w1_wl[101] w1_wl[102] w1_wl[103] w1_wl[104] w1_wl[105] w1_wl[106] w1_wl[107] w1_wl[108] w1_wl[109] w1_wl[110] w1_wl[111] w1_wl[112] w1_wl[113] w1_wl[114] w1_wl[115] w1_wl[116] w1_wl[117] w1_wl[118] w1_wl[119] w1_wl[120] w1_wl[121] w1_wl[122] w1_wl[123] w1_wl[124] w1_wl[125] w1_wl[126] w1_wl[127] w1_wl[128] w1_wl[129] w1_wl[130] w1_wl[131] w1_wl[132] w1_wl[133] w1_wl[134] w1_wl[135] w1_wl[136] w1_wl[137] w1_wl[138] w1_wl[139] w1_wl[140] w1_wl[141] w1_wl[142] w1_wl[143] w1_wl[144] w1_wl[145] w1_wl[146] w1_wl[147] w1_wl[148] w1_wl[149] w1_wl[150] w1_wl[151] w1_wl[152] w1_wl[153] w1_wl[154] w1_wl[155] w1_wl[156] w1_wl[157] w1_wl[158] w1_wl[159] w1_wl[160] w1_wl[161] w1_wl[162] w1_wl[163] w1_wl[164] w1_wl[165] w1_wl[166] w1_wl[167] w1_wl[168] w1_wl[169] w1_wl[170] w1_wl[171] w1_wl[172] w1_wl[173] w1_wl[174] w1_wl[175] w1_wl[176] w1_wl[177] w1_wl[178] w1_wl[179] w1_wl[180] w1_wl[181] w1_wl[182] w1_wl[183] w1_wl[184] w1_wl[185] w1_wl[186] w1_wl[187] w1_wl[188] w1_wl[189] w1_wl[190] w1_wl[191] w1_wl[192] w1_wl[193] w1_wl[194] w1_wl[195] w1_wl[196] w1_wl[197] w1_wl[198] w1_wl[199] w1_wl[200] w1_wl[201] w1_wl[202] w1_wl[203] w1_wl[204] w1_wl[205] w1_wl[206] w1_wl[207] w1_wl[208] w1_wl[209] w1_wl[210] w1_wl[211] w1_wl[212] w1_wl[213] w1_wl[214] w1_wl[215] w1_wl[216] w1_wl[217] w1_wl[218] w1_wl[219] w1_wl[220] w1_wl[221] w1_wl[222] w1_wl[223] w1_wl[224] w1_wl[225] w1_wl[226] w1_wl[227] w1_wl[228] w1_wl[229] w1_wl[230] w1_wl[231] w1_wl[232] w1_wl[233] w1_wl[234] w1_wl[235] w1_wl[236] w1_wl[237] w1_wl[238] w1_wl[239] w1_wl[240] w1_wl[241] w1_wl[242] w1_wl[243] w1_wl[244] w1_wl[245] w1_wl[246] w1_wl[247] w1_wl[248] w1_wl[249] w1_wl[250] w1_wl[251] w1_wl[252] w1_wl[253] w1_wl[254] w1_wl[255] w1_grp[0] w1_grp[1] w1_grp[2] w1_grp[3] r0_wl[0] r0_wl[1] r0_wl[2] r0_wl[3] r0_wl[4] r0_wl[5] r0_wl[6] r0_wl[7] r0_wl[8] r0_wl[9] r0_wl[10] r0_wl[11] r0_wl[12] r0_wl[13] r0_wl[14] r0_wl[15] r0_wl[16] r0_wl[17] r0_wl[18] r0_wl[19] r0_wl[20] r0_wl[21] r0_wl[22] r0_wl[23] r0_wl[24] r0_wl[25] r0_wl[26] r0_wl[27] r0_wl[28] r0_wl[29] r0_wl[30] r0_wl[31] r0_wl[32] r0_wl[33] r0_wl[34] r0_wl[35] r0_wl[36] r0_wl[37] r0_wl[38] r0_wl[39] r0_wl[40] r0_wl[41] r0_wl[42] r0_wl[43] r0_wl[44] r0_wl[45] r0_wl[46] r0_wl[47] r0_wl[48] r0_wl[49] r0_wl[50] r0_wl[51] r0_wl[52] r0_wl[53] r0_wl[54] r0_wl[55] r0_wl[56] r0_wl[57] r0_wl[58] r0_wl[59] r0_wl[60] r0_wl[61] r0_wl[62] r0_wl[63] r0_wl[64] r0_wl[65] r0_wl[66] r0_wl[67] r0_wl[68] r0_wl[69] r0_wl[70] r0_wl[71] r0_wl[72] r0_wl[73] r0_wl[74] r0_wl[75] r0_wl[76] r0_wl[77] r0_wl[78] r0_wl[79] r0_wl[80] r0_wl[81] r0_wl[82] r0_wl[83] r0_wl[84] r0_wl[85] r0_wl[86] r0_wl[87] r0_wl[88] r0_wl[89] r0_wl[90] r0_wl[91] r0_wl[92] r0_wl[93] r0_wl[94] r0_wl[95] r0_wl[96] r0_wl[97] r0_wl[98] r0_wl[99] r0_wl[100] r0_wl[101] r0_wl[102] r0_wl[103] r0_wl[104] r0_wl[105] r0_wl[106] r0_wl[107] r0_wl[108] r0_wl[109] r0_wl[110] r0_wl[111] r0_wl[112] r0_wl[113] r0_wl[114] r0_wl[115] r0_wl[116] r0_wl[117] r0_wl[118] r0_wl[119] r0_wl[120] r0_wl[121] r0_wl[122] r0_wl[123] r0_wl[124] r0_wl[125] r0_wl[126] r0_wl[127] r0_wl[128] r0_wl[129] r0_wl[130] r0_wl[131] r0_wl[132] r0_wl[133] r0_wl[134] r0_wl[135] r0_wl[136] r0_wl[137] r0_wl[138] r0_wl[139] r0_wl[140] r0_wl[141] r0_wl[142] r0_wl[143] r0_wl[144] r0_wl[145] r0_wl[146] r0_wl[147] r0_wl[148] r0_wl[149] r0_wl[150] r0_wl[151] r0_wl[152] r0_wl[153] r0_wl[154] r0_wl[155] r0_wl[156] r0_wl[157] r0_wl[158] r0_wl[159] r0_wl[160] r0_wl[161] r0_wl[162] r0_wl[163] r0_wl[164] r0_wl[165] r0_wl[166] r0_wl[167] r0_wl[168] r0_wl[169] r0_wl[170] r0_wl[171] r0_wl[172] r0_wl[173] r0_wl[174] r0_wl[175] r0_wl[176] r0_wl[177] r0_wl[178] r0_wl[179] r0_wl[180] r0_wl[181] r0_wl[182] r0_wl[183] r0_wl[184] r0_wl[185] r0_wl[186] r0_wl[187] r0_wl[188] r0_wl[189] r0_wl[190] r0_wl[191] r0_wl[192] r0_wl[193] r0_wl[194] r0_wl[195] r0_wl[196] r0_wl[197] r0_wl[198] r0_wl[199] r0_wl[200] r0_wl[201] r0_wl[202] r0_wl[203] r0_wl[204] r0_wl[205] r0_wl[206] r0_wl[207] r0_wl[208] r0_wl[209] r0_wl[210] r0_wl[211] r0_wl[212] r0_wl[213] r0_wl[214] r0_wl[215] r0_wl[216] r0_wl[217] r0_wl[218] r0_wl[219] r0_wl[220] r0_wl[221] r0_wl[222] r0_wl[223] r0_wl[224] r0_wl[225] r0_wl[226] r0_wl[227] r0_wl[228] r0_wl[229] r0_wl[230] r0_wl[231] r0_wl[232] r0_wl[233] r0_wl[234] r0_wl[235] r0_wl[236] r0_wl[237] r0_wl[238] r0_wl[239] r0_wl[240] r0_wl[241] r0_wl[242] r0_wl[243] r0_wl[244] r0_wl[245] r0_wl[246] r0_wl[247] r0_wl[248] r0_wl[249] r0_wl[250] r0_wl[251] r0_wl[252] r0_wl[253] r0_wl[254] r0_wl[255] r0_grp[0] r0_grp[1] r0_grp[2] r0_grp[3] r1_wl[0] r1_wl[1] r1_wl[2] r1_wl[3] r1_wl[4] r1_wl[5] r1_wl[6] r1_wl[7] r1_wl[8] r1_wl[9] r1_wl[10] r1_wl[11] r1_wl[12] r1_wl[13] r1_wl[14] r1_wl[15] r1_wl[16] r1_wl[17] r1_wl[18] r1_wl[19] r1_wl[20] r1_wl[21] r1_wl[22] r1_wl[23] r1_wl[24] r1_wl[25] r1_wl[26] r1_wl[27] r1_wl[28] r1_wl[29] r1_wl[30] r1_wl[31] r1_wl[32] r1_wl[33] r1_wl[34] r1_wl[35] r1_wl[36] r1_wl[37] r1_wl[38] r1_wl[39] r1_wl[40] r1_wl[41] r1_wl[42] r1_wl[43] r1_wl[44] r1_wl[45] r1_wl[46] r1_wl[47] r1_wl[48] r1_wl[49] r1_wl[50] r1_wl[51] r1_wl[52] r1_wl[53] r1_wl[54] r1_wl[55] r1_wl[56] r1_wl[57] r1_wl[58] r1_wl[59] r1_wl[60] r1_wl[61] r1_wl[62] r1_wl[63] r1_wl[64] r1_wl[65] r1_wl[66] r1_wl[67] r1_wl[68] r1_wl[69] r1_wl[70] r1_wl[71] r1_wl[72] r1_wl[73] r1_wl[74] r1_wl[75] r1_wl[76] r1_wl[77] r1_wl[78] r1_wl[79] r1_wl[80] r1_wl[81] r1_wl[82] r1_wl[83] r1_wl[84] r1_wl[85] r1_wl[86] r1_wl[87] r1_wl[88] r1_wl[89] r1_wl[90] r1_wl[91] r1_wl[92] r1_wl[93] r1_wl[94] r1_wl[95] r1_wl[96] r1_wl[97] r1_wl[98] r1_wl[99] r1_wl[100] r1_wl[101] r1_wl[102] r1_wl[103] r1_wl[104] r1_wl[105] r1_wl[106] r1_wl[107] r1_wl[108] r1_wl[109] r1_wl[110] r1_wl[111] r1_wl[112] r1_wl[113] r1_wl[114] r1_wl[115] r1_wl[116] r1_wl[117] r1_wl[118] r1_wl[119] r1_wl[120] r1_wl[121] r1_wl[122] r1_wl[123] r1_wl[124] r1_wl[125] r1_wl[126] r1_wl[127] r1_wl[128] r1_wl[129] r1_wl[130] r1_wl[131] r1_wl[132] r1_wl[133] r1_wl[134] r1_wl[135] r1_wl[136] r1_wl[137] r1_wl[138] r1_wl[139] r1_wl[140] r1_wl[141] r1_wl[142] r1_wl[143] r1_wl[144] r1_wl[145] r1_wl[146] r1_wl[147] r1_wl[148] r1_wl[149] r1_wl[150] r1_wl[151] r1_wl[152] r1_wl[153] r1_wl[154] r1_wl[155] r1_wl[156] r1_wl[157] r1_wl[158] r1_wl[159] r1_wl[160] r1_wl[161] r1_wl[162] r1_wl[163] r1_wl[164] r1_wl[165] r1_wl[166] r1_wl[167] r1_wl[168] r1_wl[169] r1_wl[170] r1_wl[171] r1_wl[172] r1_wl[173] r1_wl[174] r1_wl[175] r1_wl[176] r1_wl[177] r1_wl[178] r1_wl[179] r1_wl[180] r1_wl[181] r1_wl[182] r1_wl[183] r1_wl[184] r1_wl[185] r1_wl[186] r1_wl[187] r1_wl[188] r1_wl[189] r1_wl[190] r1_wl[191] r1_wl[192] r1_wl[193] r1_wl[194] r1_wl[195] r1_wl[196] r1_wl[197] r1_wl[198] r1_wl[199] r1_wl[200] r1_wl[201] r1_wl[202] r1_wl[203] r1_wl[204] r1_wl[205] r1_wl[206] r1_wl[207] r1_wl[208] r1_wl[209] r1_wl[210] r1_wl[211] r1_wl[212] r1_wl[213] r1_wl[214] r1_wl[215] r1_wl[216] r1_wl[217] r1_wl[218] r1_wl[219] r1_wl[220] r1_wl[221] r1_wl[222] r1_wl[223] r1_wl[224] r1_wl[225] r1_wl[226] r1_wl[227] r1_wl[228] r1_wl[229] r1_wl[230] r1_wl[231] r1_wl[232] r1_wl[233] r1_wl[234] r1_wl[235] r1_wl[236] r1_wl[237] r1_wl[238] r1_wl[239] r1_wl[240] r1_wl[241] r1_wl[242] r1_wl[243] r1_wl[244] r1_wl[245] r1_wl[246] r1_wl[247] r1_wl[248] r1_wl[249] r1_wl[250] r1_wl[251] r1_wl[252] r1_wl[253] r1_wl[254] r1_wl[255] r1_grp[0] r1_grp[1] r1_grp[2] r1_grp[3]
Xw0_a0_inv VDD VDD VSS VSS w0_a0_n w0_addr[0] gf180mcu_as_sc_mcu7t3v3__inv_2
Xw0_a1_inv VDD VDD VSS VSS w0_a1_n w0_addr[1] gf180mcu_as_sc_mcu7t3v3__inv_2
Xw0_a2_inv VDD VDD VSS VSS w0_a2_n w0_addr[2] gf180mcu_as_sc_mcu7t3v3__inv_2
Xw0_a3_inv VDD VDD VSS VSS w0_a3_n w0_addr[3] gf180mcu_as_sc_mcu7t3v3__inv_2
Xw0_a4_inv VDD VDD VSS VSS w0_a4_n w0_addr[4] gf180mcu_as_sc_mcu7t3v3__inv_2
Xw0_a5_inv VDD VDD VSS VSS w0_a5_n w0_addr[5] gf180mcu_as_sc_mcu7t3v3__inv_2
Xw0_a6_inv VDD VDD VSS VSS w0_a6_n w0_addr[6] gf180mcu_as_sc_mcu7t3v3__inv_2
Xw0_a7_inv VDD VDD VSS VSS w0_a7_n w0_addr[7] gf180mcu_as_sc_mcu7t3v3__inv_2
Xw0_a8_inv VDD VDD VSS VSS w0_a8_n w0_addr[8] gf180mcu_as_sc_mcu7t3v3__inv_2
Xw0_a9_inv VDD VDD VSS VSS w0_a9_n w0_addr[9] gf180mcu_as_sc_mcu7t3v3__inv_2
Xw0_grp0_nand2 VDD VDD VSS VSS w0_grp0_n w0_a1_n w0_a0_n gf180mcu_as_sc_mcu7t3v3__nand2_2
Xw0_grp0_inv VDD VDD VSS VSS w0_grp[0] w0_grp0_n gf180mcu_as_sc_mcu7t3v3__inv_2
Xw0_grp1_nand2 VDD VDD VSS VSS w0_grp1_n w0_a1_n w0_addr[0] gf180mcu_as_sc_mcu7t3v3__nand2_2
Xw0_grp1_inv VDD VDD VSS VSS w0_grp[1] w0_grp1_n gf180mcu_as_sc_mcu7t3v3__inv_2
Xw0_grp2_nand2 VDD VDD VSS VSS w0_grp2_n w0_addr[1] w0_a0_n gf180mcu_as_sc_mcu7t3v3__nand2_2
Xw0_grp2_inv VDD VDD VSS VSS w0_grp[2] w0_grp2_n gf180mcu_as_sc_mcu7t3v3__inv_2
Xw0_grp3_nand2 VDD VDD VSS VSS w0_grp3_n w0_addr[1] w0_addr[0] gf180mcu_as_sc_mcu7t3v3__nand2_2
Xw0_grp3_inv VDD VDD VSS VSS w0_grp[3] w0_grp3_n gf180mcu_as_sc_mcu7t3v3__inv_2
Xw0_pd0_0_nand2 VDD VDD VSS VSS w0_pd0_0_n w0_a3_n w0_a2_n gf180mcu_as_sc_mcu7t3v3__nand2_2
Xw0_pd0_0_inv VDD VDD VSS VSS w0_pd0_0 w0_pd0_0_n gf180mcu_as_sc_mcu7t3v3__inv_2
Xw0_pd0_1_nand2 VDD VDD VSS VSS w0_pd0_1_n w0_a3_n w0_addr[2] gf180mcu_as_sc_mcu7t3v3__nand2_2
Xw0_pd0_1_inv VDD VDD VSS VSS w0_pd0_1 w0_pd0_1_n gf180mcu_as_sc_mcu7t3v3__inv_2
Xw0_pd0_2_nand2 VDD VDD VSS VSS w0_pd0_2_n w0_addr[3] w0_a2_n gf180mcu_as_sc_mcu7t3v3__nand2_2
Xw0_pd0_2_inv VDD VDD VSS VSS w0_pd0_2 w0_pd0_2_n gf180mcu_as_sc_mcu7t3v3__inv_2
Xw0_pd0_3_nand2 VDD VDD VSS VSS w0_pd0_3_n w0_addr[3] w0_addr[2] gf180mcu_as_sc_mcu7t3v3__nand2_2
Xw0_pd0_3_inv VDD VDD VSS VSS w0_pd0_3 w0_pd0_3_n gf180mcu_as_sc_mcu7t3v3__inv_2
Xw0_pd1_0_nand2 VDD VDD VSS VSS w0_pd1_0_n w0_a5_n w0_a4_n gf180mcu_as_sc_mcu7t3v3__nand2_2
Xw0_pd1_0_inv VDD VDD VSS VSS w0_pd1_0 w0_pd1_0_n gf180mcu_as_sc_mcu7t3v3__inv_2
Xw0_pd1_1_nand2 VDD VDD VSS VSS w0_pd1_1_n w0_a5_n w0_addr[4] gf180mcu_as_sc_mcu7t3v3__nand2_2
Xw0_pd1_1_inv VDD VDD VSS VSS w0_pd1_1 w0_pd1_1_n gf180mcu_as_sc_mcu7t3v3__inv_2
Xw0_pd1_2_nand2 VDD VDD VSS VSS w0_pd1_2_n w0_addr[5] w0_a4_n gf180mcu_as_sc_mcu7t3v3__nand2_2
Xw0_pd1_2_inv VDD VDD VSS VSS w0_pd1_2 w0_pd1_2_n gf180mcu_as_sc_mcu7t3v3__inv_2
Xw0_pd1_3_nand2 VDD VDD VSS VSS w0_pd1_3_n w0_addr[5] w0_addr[4] gf180mcu_as_sc_mcu7t3v3__nand2_2
Xw0_pd1_3_inv VDD VDD VSS VSS w0_pd1_3 w0_pd1_3_n gf180mcu_as_sc_mcu7t3v3__inv_2
Xw0_pd2_0_nand4 VDD VDD VSS VSS w0_a6_n w0_a7_n w0_a8_n w0_a9_n w0_pd2_0_n gf180mcu_as_sc_mcu7t3v3__nand4_2
Xw0_pd2_0_inv VDD VDD VSS VSS w0_pd2_0 w0_pd2_0_n gf180mcu_as_sc_mcu7t3v3__inv_2
Xw0_pd2_1_nand4 VDD VDD VSS VSS w0_addr[6] w0_a7_n w0_a8_n w0_a9_n w0_pd2_1_n gf180mcu_as_sc_mcu7t3v3__nand4_2
Xw0_pd2_1_inv VDD VDD VSS VSS w0_pd2_1 w0_pd2_1_n gf180mcu_as_sc_mcu7t3v3__inv_2
Xw0_pd2_2_nand4 VDD VDD VSS VSS w0_a6_n w0_addr[7] w0_a8_n w0_a9_n w0_pd2_2_n gf180mcu_as_sc_mcu7t3v3__nand4_2
Xw0_pd2_2_inv VDD VDD VSS VSS w0_pd2_2 w0_pd2_2_n gf180mcu_as_sc_mcu7t3v3__inv_2
Xw0_pd2_3_nand4 VDD VDD VSS VSS w0_addr[6] w0_addr[7] w0_a8_n w0_a9_n w0_pd2_3_n gf180mcu_as_sc_mcu7t3v3__nand4_2
Xw0_pd2_3_inv VDD VDD VSS VSS w0_pd2_3 w0_pd2_3_n gf180mcu_as_sc_mcu7t3v3__inv_2
Xw0_pd2_4_nand4 VDD VDD VSS VSS w0_a6_n w0_a7_n w0_addr[8] w0_a9_n w0_pd2_4_n gf180mcu_as_sc_mcu7t3v3__nand4_2
Xw0_pd2_4_inv VDD VDD VSS VSS w0_pd2_4 w0_pd2_4_n gf180mcu_as_sc_mcu7t3v3__inv_2
Xw0_pd2_5_nand4 VDD VDD VSS VSS w0_addr[6] w0_a7_n w0_addr[8] w0_a9_n w0_pd2_5_n gf180mcu_as_sc_mcu7t3v3__nand4_2
Xw0_pd2_5_inv VDD VDD VSS VSS w0_pd2_5 w0_pd2_5_n gf180mcu_as_sc_mcu7t3v3__inv_2
Xw0_pd2_6_nand4 VDD VDD VSS VSS w0_a6_n w0_addr[7] w0_addr[8] w0_a9_n w0_pd2_6_n gf180mcu_as_sc_mcu7t3v3__nand4_2
Xw0_pd2_6_inv VDD VDD VSS VSS w0_pd2_6 w0_pd2_6_n gf180mcu_as_sc_mcu7t3v3__inv_2
Xw0_pd2_7_nand4 VDD VDD VSS VSS w0_addr[6] w0_addr[7] w0_addr[8] w0_a9_n w0_pd2_7_n gf180mcu_as_sc_mcu7t3v3__nand4_2
Xw0_pd2_7_inv VDD VDD VSS VSS w0_pd2_7 w0_pd2_7_n gf180mcu_as_sc_mcu7t3v3__inv_2
Xw0_pd2_8_nand4 VDD VDD VSS VSS w0_a6_n w0_a7_n w0_a8_n w0_addr[9] w0_pd2_8_n gf180mcu_as_sc_mcu7t3v3__nand4_2
Xw0_pd2_8_inv VDD VDD VSS VSS w0_pd2_8 w0_pd2_8_n gf180mcu_as_sc_mcu7t3v3__inv_2
Xw0_pd2_9_nand4 VDD VDD VSS VSS w0_addr[6] w0_a7_n w0_a8_n w0_addr[9] w0_pd2_9_n gf180mcu_as_sc_mcu7t3v3__nand4_2
Xw0_pd2_9_inv VDD VDD VSS VSS w0_pd2_9 w0_pd2_9_n gf180mcu_as_sc_mcu7t3v3__inv_2
Xw0_pd2_10_nand4 VDD VDD VSS VSS w0_a6_n w0_addr[7] w0_a8_n w0_addr[9] w0_pd2_10_n gf180mcu_as_sc_mcu7t3v3__nand4_2
Xw0_pd2_10_inv VDD VDD VSS VSS w0_pd2_10 w0_pd2_10_n gf180mcu_as_sc_mcu7t3v3__inv_2
Xw0_pd2_11_nand4 VDD VDD VSS VSS w0_addr[6] w0_addr[7] w0_a8_n w0_addr[9] w0_pd2_11_n gf180mcu_as_sc_mcu7t3v3__nand4_2
Xw0_pd2_11_inv VDD VDD VSS VSS w0_pd2_11 w0_pd2_11_n gf180mcu_as_sc_mcu7t3v3__inv_2
Xw0_pd2_12_nand4 VDD VDD VSS VSS w0_a6_n w0_a7_n w0_addr[8] w0_addr[9] w0_pd2_12_n gf180mcu_as_sc_mcu7t3v3__nand4_2
Xw0_pd2_12_inv VDD VDD VSS VSS w0_pd2_12 w0_pd2_12_n gf180mcu_as_sc_mcu7t3v3__inv_2
Xw0_pd2_13_nand4 VDD VDD VSS VSS w0_addr[6] w0_a7_n w0_addr[8] w0_addr[9] w0_pd2_13_n gf180mcu_as_sc_mcu7t3v3__nand4_2
Xw0_pd2_13_inv VDD VDD VSS VSS w0_pd2_13 w0_pd2_13_n gf180mcu_as_sc_mcu7t3v3__inv_2
Xw0_pd2_14_nand4 VDD VDD VSS VSS w0_a6_n w0_addr[7] w0_addr[8] w0_addr[9] w0_pd2_14_n gf180mcu_as_sc_mcu7t3v3__nand4_2
Xw0_pd2_14_inv VDD VDD VSS VSS w0_pd2_14 w0_pd2_14_n gf180mcu_as_sc_mcu7t3v3__inv_2
Xw0_pd2_15_nand4 VDD VDD VSS VSS w0_addr[6] w0_addr[7] w0_addr[8] w0_addr[9] w0_pd2_15_n gf180mcu_as_sc_mcu7t3v3__nand4_2
Xw0_pd2_15_inv VDD VDD VSS VSS w0_pd2_15 w0_pd2_15_n gf180mcu_as_sc_mcu7t3v3__inv_2
Xw0_row0000_sel_nand4 VDD VDD VSS VSS w0_pd0_0 w0_pd1_0 w0_pd2_0 w0_en w0_row0000_sel_row_n gf180mcu_as_sc_mcu7t3v3__nand4_2
Xw0_row0000_sel_buf0 VDD VDD VSS VSS w0_row0000_sel_buf0 w0_row0000_sel_row_n gf180mcu_as_sc_mcu7t3v3__inv_2
Xw0_row0000_sel_buf1 VDD VDD VSS VSS w0_row0000_sel_buf1 w0_row0000_sel_buf0 gf180mcu_as_sc_mcu7t3v3__inv_2
Xw0_row0000_sel_buf2 VDD VDD VSS VSS w0_wl[0] w0_row0000_sel_buf1 gf180mcu_as_sc_mcu7t3v3__inv_2
Xw0_row0001_sel_nand4 VDD VDD VSS VSS w0_pd0_1 w0_pd1_0 w0_pd2_0 w0_en w0_row0001_sel_row_n gf180mcu_as_sc_mcu7t3v3__nand4_2
Xw0_row0001_sel_buf0 VDD VDD VSS VSS w0_row0001_sel_buf0 w0_row0001_sel_row_n gf180mcu_as_sc_mcu7t3v3__inv_2
Xw0_row0001_sel_buf1 VDD VDD VSS VSS w0_row0001_sel_buf1 w0_row0001_sel_buf0 gf180mcu_as_sc_mcu7t3v3__inv_2
Xw0_row0001_sel_buf2 VDD VDD VSS VSS w0_wl[1] w0_row0001_sel_buf1 gf180mcu_as_sc_mcu7t3v3__inv_2
Xw0_row0002_sel_nand4 VDD VDD VSS VSS w0_pd0_2 w0_pd1_0 w0_pd2_0 w0_en w0_row0002_sel_row_n gf180mcu_as_sc_mcu7t3v3__nand4_2
Xw0_row0002_sel_buf0 VDD VDD VSS VSS w0_row0002_sel_buf0 w0_row0002_sel_row_n gf180mcu_as_sc_mcu7t3v3__inv_2
Xw0_row0002_sel_buf1 VDD VDD VSS VSS w0_row0002_sel_buf1 w0_row0002_sel_buf0 gf180mcu_as_sc_mcu7t3v3__inv_2
Xw0_row0002_sel_buf2 VDD VDD VSS VSS w0_wl[2] w0_row0002_sel_buf1 gf180mcu_as_sc_mcu7t3v3__inv_2
Xw0_row0003_sel_nand4 VDD VDD VSS VSS w0_pd0_3 w0_pd1_0 w0_pd2_0 w0_en w0_row0003_sel_row_n gf180mcu_as_sc_mcu7t3v3__nand4_2
Xw0_row0003_sel_buf0 VDD VDD VSS VSS w0_row0003_sel_buf0 w0_row0003_sel_row_n gf180mcu_as_sc_mcu7t3v3__inv_2
Xw0_row0003_sel_buf1 VDD VDD VSS VSS w0_row0003_sel_buf1 w0_row0003_sel_buf0 gf180mcu_as_sc_mcu7t3v3__inv_2
Xw0_row0003_sel_buf2 VDD VDD VSS VSS w0_wl[3] w0_row0003_sel_buf1 gf180mcu_as_sc_mcu7t3v3__inv_2
Xw0_row0004_sel_nand4 VDD VDD VSS VSS w0_pd0_0 w0_pd1_1 w0_pd2_0 w0_en w0_row0004_sel_row_n gf180mcu_as_sc_mcu7t3v3__nand4_2
Xw0_row0004_sel_buf0 VDD VDD VSS VSS w0_row0004_sel_buf0 w0_row0004_sel_row_n gf180mcu_as_sc_mcu7t3v3__inv_2
Xw0_row0004_sel_buf1 VDD VDD VSS VSS w0_row0004_sel_buf1 w0_row0004_sel_buf0 gf180mcu_as_sc_mcu7t3v3__inv_2
Xw0_row0004_sel_buf2 VDD VDD VSS VSS w0_wl[4] w0_row0004_sel_buf1 gf180mcu_as_sc_mcu7t3v3__inv_2
Xw0_row0005_sel_nand4 VDD VDD VSS VSS w0_pd0_1 w0_pd1_1 w0_pd2_0 w0_en w0_row0005_sel_row_n gf180mcu_as_sc_mcu7t3v3__nand4_2
Xw0_row0005_sel_buf0 VDD VDD VSS VSS w0_row0005_sel_buf0 w0_row0005_sel_row_n gf180mcu_as_sc_mcu7t3v3__inv_2
Xw0_row0005_sel_buf1 VDD VDD VSS VSS w0_row0005_sel_buf1 w0_row0005_sel_buf0 gf180mcu_as_sc_mcu7t3v3__inv_2
Xw0_row0005_sel_buf2 VDD VDD VSS VSS w0_wl[5] w0_row0005_sel_buf1 gf180mcu_as_sc_mcu7t3v3__inv_2
Xw0_row0006_sel_nand4 VDD VDD VSS VSS w0_pd0_2 w0_pd1_1 w0_pd2_0 w0_en w0_row0006_sel_row_n gf180mcu_as_sc_mcu7t3v3__nand4_2
Xw0_row0006_sel_buf0 VDD VDD VSS VSS w0_row0006_sel_buf0 w0_row0006_sel_row_n gf180mcu_as_sc_mcu7t3v3__inv_2
Xw0_row0006_sel_buf1 VDD VDD VSS VSS w0_row0006_sel_buf1 w0_row0006_sel_buf0 gf180mcu_as_sc_mcu7t3v3__inv_2
Xw0_row0006_sel_buf2 VDD VDD VSS VSS w0_wl[6] w0_row0006_sel_buf1 gf180mcu_as_sc_mcu7t3v3__inv_2
Xw0_row0007_sel_nand4 VDD VDD VSS VSS w0_pd0_3 w0_pd1_1 w0_pd2_0 w0_en w0_row0007_sel_row_n gf180mcu_as_sc_mcu7t3v3__nand4_2
Xw0_row0007_sel_buf0 VDD VDD VSS VSS w0_row0007_sel_buf0 w0_row0007_sel_row_n gf180mcu_as_sc_mcu7t3v3__inv_2
Xw0_row0007_sel_buf1 VDD VDD VSS VSS w0_row0007_sel_buf1 w0_row0007_sel_buf0 gf180mcu_as_sc_mcu7t3v3__inv_2
Xw0_row0007_sel_buf2 VDD VDD VSS VSS w0_wl[7] w0_row0007_sel_buf1 gf180mcu_as_sc_mcu7t3v3__inv_2
Xw0_row0008_sel_nand4 VDD VDD VSS VSS w0_pd0_0 w0_pd1_2 w0_pd2_0 w0_en w0_row0008_sel_row_n gf180mcu_as_sc_mcu7t3v3__nand4_2
Xw0_row0008_sel_buf0 VDD VDD VSS VSS w0_row0008_sel_buf0 w0_row0008_sel_row_n gf180mcu_as_sc_mcu7t3v3__inv_2
Xw0_row0008_sel_buf1 VDD VDD VSS VSS w0_row0008_sel_buf1 w0_row0008_sel_buf0 gf180mcu_as_sc_mcu7t3v3__inv_2
Xw0_row0008_sel_buf2 VDD VDD VSS VSS w0_wl[8] w0_row0008_sel_buf1 gf180mcu_as_sc_mcu7t3v3__inv_2
Xw0_row0009_sel_nand4 VDD VDD VSS VSS w0_pd0_1 w0_pd1_2 w0_pd2_0 w0_en w0_row0009_sel_row_n gf180mcu_as_sc_mcu7t3v3__nand4_2
Xw0_row0009_sel_buf0 VDD VDD VSS VSS w0_row0009_sel_buf0 w0_row0009_sel_row_n gf180mcu_as_sc_mcu7t3v3__inv_2
Xw0_row0009_sel_buf1 VDD VDD VSS VSS w0_row0009_sel_buf1 w0_row0009_sel_buf0 gf180mcu_as_sc_mcu7t3v3__inv_2
Xw0_row0009_sel_buf2 VDD VDD VSS VSS w0_wl[9] w0_row0009_sel_buf1 gf180mcu_as_sc_mcu7t3v3__inv_2
Xw0_row0010_sel_nand4 VDD VDD VSS VSS w0_pd0_2 w0_pd1_2 w0_pd2_0 w0_en w0_row0010_sel_row_n gf180mcu_as_sc_mcu7t3v3__nand4_2
Xw0_row0010_sel_buf0 VDD VDD VSS VSS w0_row0010_sel_buf0 w0_row0010_sel_row_n gf180mcu_as_sc_mcu7t3v3__inv_2
Xw0_row0010_sel_buf1 VDD VDD VSS VSS w0_row0010_sel_buf1 w0_row0010_sel_buf0 gf180mcu_as_sc_mcu7t3v3__inv_2
Xw0_row0010_sel_buf2 VDD VDD VSS VSS w0_wl[10] w0_row0010_sel_buf1 gf180mcu_as_sc_mcu7t3v3__inv_2
Xw0_row0011_sel_nand4 VDD VDD VSS VSS w0_pd0_3 w0_pd1_2 w0_pd2_0 w0_en w0_row0011_sel_row_n gf180mcu_as_sc_mcu7t3v3__nand4_2
Xw0_row0011_sel_buf0 VDD VDD VSS VSS w0_row0011_sel_buf0 w0_row0011_sel_row_n gf180mcu_as_sc_mcu7t3v3__inv_2
Xw0_row0011_sel_buf1 VDD VDD VSS VSS w0_row0011_sel_buf1 w0_row0011_sel_buf0 gf180mcu_as_sc_mcu7t3v3__inv_2
Xw0_row0011_sel_buf2 VDD VDD VSS VSS w0_wl[11] w0_row0011_sel_buf1 gf180mcu_as_sc_mcu7t3v3__inv_2
Xw0_row0012_sel_nand4 VDD VDD VSS VSS w0_pd0_0 w0_pd1_3 w0_pd2_0 w0_en w0_row0012_sel_row_n gf180mcu_as_sc_mcu7t3v3__nand4_2
Xw0_row0012_sel_buf0 VDD VDD VSS VSS w0_row0012_sel_buf0 w0_row0012_sel_row_n gf180mcu_as_sc_mcu7t3v3__inv_2
Xw0_row0012_sel_buf1 VDD VDD VSS VSS w0_row0012_sel_buf1 w0_row0012_sel_buf0 gf180mcu_as_sc_mcu7t3v3__inv_2
Xw0_row0012_sel_buf2 VDD VDD VSS VSS w0_wl[12] w0_row0012_sel_buf1 gf180mcu_as_sc_mcu7t3v3__inv_2
Xw0_row0013_sel_nand4 VDD VDD VSS VSS w0_pd0_1 w0_pd1_3 w0_pd2_0 w0_en w0_row0013_sel_row_n gf180mcu_as_sc_mcu7t3v3__nand4_2
Xw0_row0013_sel_buf0 VDD VDD VSS VSS w0_row0013_sel_buf0 w0_row0013_sel_row_n gf180mcu_as_sc_mcu7t3v3__inv_2
Xw0_row0013_sel_buf1 VDD VDD VSS VSS w0_row0013_sel_buf1 w0_row0013_sel_buf0 gf180mcu_as_sc_mcu7t3v3__inv_2
Xw0_row0013_sel_buf2 VDD VDD VSS VSS w0_wl[13] w0_row0013_sel_buf1 gf180mcu_as_sc_mcu7t3v3__inv_2
Xw0_row0014_sel_nand4 VDD VDD VSS VSS w0_pd0_2 w0_pd1_3 w0_pd2_0 w0_en w0_row0014_sel_row_n gf180mcu_as_sc_mcu7t3v3__nand4_2
Xw0_row0014_sel_buf0 VDD VDD VSS VSS w0_row0014_sel_buf0 w0_row0014_sel_row_n gf180mcu_as_sc_mcu7t3v3__inv_2
Xw0_row0014_sel_buf1 VDD VDD VSS VSS w0_row0014_sel_buf1 w0_row0014_sel_buf0 gf180mcu_as_sc_mcu7t3v3__inv_2
Xw0_row0014_sel_buf2 VDD VDD VSS VSS w0_wl[14] w0_row0014_sel_buf1 gf180mcu_as_sc_mcu7t3v3__inv_2
Xw0_row0015_sel_nand4 VDD VDD VSS VSS w0_pd0_3 w0_pd1_3 w0_pd2_0 w0_en w0_row0015_sel_row_n gf180mcu_as_sc_mcu7t3v3__nand4_2
Xw0_row0015_sel_buf0 VDD VDD VSS VSS w0_row0015_sel_buf0 w0_row0015_sel_row_n gf180mcu_as_sc_mcu7t3v3__inv_2
Xw0_row0015_sel_buf1 VDD VDD VSS VSS w0_row0015_sel_buf1 w0_row0015_sel_buf0 gf180mcu_as_sc_mcu7t3v3__inv_2
Xw0_row0015_sel_buf2 VDD VDD VSS VSS w0_wl[15] w0_row0015_sel_buf1 gf180mcu_as_sc_mcu7t3v3__inv_2
Xw0_row0016_sel_nand4 VDD VDD VSS VSS w0_pd0_0 w0_pd1_0 w0_pd2_1 w0_en w0_row0016_sel_row_n gf180mcu_as_sc_mcu7t3v3__nand4_2
Xw0_row0016_sel_buf0 VDD VDD VSS VSS w0_row0016_sel_buf0 w0_row0016_sel_row_n gf180mcu_as_sc_mcu7t3v3__inv_2
Xw0_row0016_sel_buf1 VDD VDD VSS VSS w0_row0016_sel_buf1 w0_row0016_sel_buf0 gf180mcu_as_sc_mcu7t3v3__inv_2
Xw0_row0016_sel_buf2 VDD VDD VSS VSS w0_wl[16] w0_row0016_sel_buf1 gf180mcu_as_sc_mcu7t3v3__inv_2
Xw0_row0017_sel_nand4 VDD VDD VSS VSS w0_pd0_1 w0_pd1_0 w0_pd2_1 w0_en w0_row0017_sel_row_n gf180mcu_as_sc_mcu7t3v3__nand4_2
Xw0_row0017_sel_buf0 VDD VDD VSS VSS w0_row0017_sel_buf0 w0_row0017_sel_row_n gf180mcu_as_sc_mcu7t3v3__inv_2
Xw0_row0017_sel_buf1 VDD VDD VSS VSS w0_row0017_sel_buf1 w0_row0017_sel_buf0 gf180mcu_as_sc_mcu7t3v3__inv_2
Xw0_row0017_sel_buf2 VDD VDD VSS VSS w0_wl[17] w0_row0017_sel_buf1 gf180mcu_as_sc_mcu7t3v3__inv_2
Xw0_row0018_sel_nand4 VDD VDD VSS VSS w0_pd0_2 w0_pd1_0 w0_pd2_1 w0_en w0_row0018_sel_row_n gf180mcu_as_sc_mcu7t3v3__nand4_2
Xw0_row0018_sel_buf0 VDD VDD VSS VSS w0_row0018_sel_buf0 w0_row0018_sel_row_n gf180mcu_as_sc_mcu7t3v3__inv_2
Xw0_row0018_sel_buf1 VDD VDD VSS VSS w0_row0018_sel_buf1 w0_row0018_sel_buf0 gf180mcu_as_sc_mcu7t3v3__inv_2
Xw0_row0018_sel_buf2 VDD VDD VSS VSS w0_wl[18] w0_row0018_sel_buf1 gf180mcu_as_sc_mcu7t3v3__inv_2
Xw0_row0019_sel_nand4 VDD VDD VSS VSS w0_pd0_3 w0_pd1_0 w0_pd2_1 w0_en w0_row0019_sel_row_n gf180mcu_as_sc_mcu7t3v3__nand4_2
Xw0_row0019_sel_buf0 VDD VDD VSS VSS w0_row0019_sel_buf0 w0_row0019_sel_row_n gf180mcu_as_sc_mcu7t3v3__inv_2
Xw0_row0019_sel_buf1 VDD VDD VSS VSS w0_row0019_sel_buf1 w0_row0019_sel_buf0 gf180mcu_as_sc_mcu7t3v3__inv_2
Xw0_row0019_sel_buf2 VDD VDD VSS VSS w0_wl[19] w0_row0019_sel_buf1 gf180mcu_as_sc_mcu7t3v3__inv_2
Xw0_row0020_sel_nand4 VDD VDD VSS VSS w0_pd0_0 w0_pd1_1 w0_pd2_1 w0_en w0_row0020_sel_row_n gf180mcu_as_sc_mcu7t3v3__nand4_2
Xw0_row0020_sel_buf0 VDD VDD VSS VSS w0_row0020_sel_buf0 w0_row0020_sel_row_n gf180mcu_as_sc_mcu7t3v3__inv_2
Xw0_row0020_sel_buf1 VDD VDD VSS VSS w0_row0020_sel_buf1 w0_row0020_sel_buf0 gf180mcu_as_sc_mcu7t3v3__inv_2
Xw0_row0020_sel_buf2 VDD VDD VSS VSS w0_wl[20] w0_row0020_sel_buf1 gf180mcu_as_sc_mcu7t3v3__inv_2
Xw0_row0021_sel_nand4 VDD VDD VSS VSS w0_pd0_1 w0_pd1_1 w0_pd2_1 w0_en w0_row0021_sel_row_n gf180mcu_as_sc_mcu7t3v3__nand4_2
Xw0_row0021_sel_buf0 VDD VDD VSS VSS w0_row0021_sel_buf0 w0_row0021_sel_row_n gf180mcu_as_sc_mcu7t3v3__inv_2
Xw0_row0021_sel_buf1 VDD VDD VSS VSS w0_row0021_sel_buf1 w0_row0021_sel_buf0 gf180mcu_as_sc_mcu7t3v3__inv_2
Xw0_row0021_sel_buf2 VDD VDD VSS VSS w0_wl[21] w0_row0021_sel_buf1 gf180mcu_as_sc_mcu7t3v3__inv_2
Xw0_row0022_sel_nand4 VDD VDD VSS VSS w0_pd0_2 w0_pd1_1 w0_pd2_1 w0_en w0_row0022_sel_row_n gf180mcu_as_sc_mcu7t3v3__nand4_2
Xw0_row0022_sel_buf0 VDD VDD VSS VSS w0_row0022_sel_buf0 w0_row0022_sel_row_n gf180mcu_as_sc_mcu7t3v3__inv_2
Xw0_row0022_sel_buf1 VDD VDD VSS VSS w0_row0022_sel_buf1 w0_row0022_sel_buf0 gf180mcu_as_sc_mcu7t3v3__inv_2
Xw0_row0022_sel_buf2 VDD VDD VSS VSS w0_wl[22] w0_row0022_sel_buf1 gf180mcu_as_sc_mcu7t3v3__inv_2
Xw0_row0023_sel_nand4 VDD VDD VSS VSS w0_pd0_3 w0_pd1_1 w0_pd2_1 w0_en w0_row0023_sel_row_n gf180mcu_as_sc_mcu7t3v3__nand4_2
Xw0_row0023_sel_buf0 VDD VDD VSS VSS w0_row0023_sel_buf0 w0_row0023_sel_row_n gf180mcu_as_sc_mcu7t3v3__inv_2
Xw0_row0023_sel_buf1 VDD VDD VSS VSS w0_row0023_sel_buf1 w0_row0023_sel_buf0 gf180mcu_as_sc_mcu7t3v3__inv_2
Xw0_row0023_sel_buf2 VDD VDD VSS VSS w0_wl[23] w0_row0023_sel_buf1 gf180mcu_as_sc_mcu7t3v3__inv_2
Xw0_row0024_sel_nand4 VDD VDD VSS VSS w0_pd0_0 w0_pd1_2 w0_pd2_1 w0_en w0_row0024_sel_row_n gf180mcu_as_sc_mcu7t3v3__nand4_2
Xw0_row0024_sel_buf0 VDD VDD VSS VSS w0_row0024_sel_buf0 w0_row0024_sel_row_n gf180mcu_as_sc_mcu7t3v3__inv_2
Xw0_row0024_sel_buf1 VDD VDD VSS VSS w0_row0024_sel_buf1 w0_row0024_sel_buf0 gf180mcu_as_sc_mcu7t3v3__inv_2
Xw0_row0024_sel_buf2 VDD VDD VSS VSS w0_wl[24] w0_row0024_sel_buf1 gf180mcu_as_sc_mcu7t3v3__inv_2
Xw0_row0025_sel_nand4 VDD VDD VSS VSS w0_pd0_1 w0_pd1_2 w0_pd2_1 w0_en w0_row0025_sel_row_n gf180mcu_as_sc_mcu7t3v3__nand4_2
Xw0_row0025_sel_buf0 VDD VDD VSS VSS w0_row0025_sel_buf0 w0_row0025_sel_row_n gf180mcu_as_sc_mcu7t3v3__inv_2
Xw0_row0025_sel_buf1 VDD VDD VSS VSS w0_row0025_sel_buf1 w0_row0025_sel_buf0 gf180mcu_as_sc_mcu7t3v3__inv_2
Xw0_row0025_sel_buf2 VDD VDD VSS VSS w0_wl[25] w0_row0025_sel_buf1 gf180mcu_as_sc_mcu7t3v3__inv_2
Xw0_row0026_sel_nand4 VDD VDD VSS VSS w0_pd0_2 w0_pd1_2 w0_pd2_1 w0_en w0_row0026_sel_row_n gf180mcu_as_sc_mcu7t3v3__nand4_2
Xw0_row0026_sel_buf0 VDD VDD VSS VSS w0_row0026_sel_buf0 w0_row0026_sel_row_n gf180mcu_as_sc_mcu7t3v3__inv_2
Xw0_row0026_sel_buf1 VDD VDD VSS VSS w0_row0026_sel_buf1 w0_row0026_sel_buf0 gf180mcu_as_sc_mcu7t3v3__inv_2
Xw0_row0026_sel_buf2 VDD VDD VSS VSS w0_wl[26] w0_row0026_sel_buf1 gf180mcu_as_sc_mcu7t3v3__inv_2