* Layout macro-top blackbox extracted from build/pin_lvs_pex_signoff/gf180mcu_3v3_12t_2r2w_sram_512x32/pex/gf180mcu_3v3_12t_2r2w_sram_512x32.current_pdk.spice

.subckt gf180mcu_3v3_12t_2r2w_sram_4x4_tile c0_w0_bl c0_w0_br c0_w1_bl c0_w1_br c0_r0_rbl c0_r1_rbl
+ c1_w0_bl c1_w0_br c1_w1_bl c1_w1_br c1_r0_rbl c1_r1_rbl c2_w0_bl c2_w0_br c2_w1_bl c2_w1_br c2_r0_rbl c2_r1_rbl
+ c3_w0_bl c3_w0_br c3_w1_bl c3_w1_br c3_r0_rbl c3_r1_rbl r0_w0_wl r0_w1_wl r0_r0_rwl r0_r1_rwl r1_w0_wl r1_w1_wl
+ r1_r0_rwl r1_r1_rwl r2_w0_wl r2_w1_wl r2_r0_rwl r2_r1_rwl r3_w0_wl r3_w1_wl r3_r0_rwl r3_r1_rwl VDD VSS VSUBS
.ends gf180mcu_3v3_12t_2r2w_sram_4x4_tile

.subckt gf180mcu_3v3_12t_2r2w_sram_512x32 clk w0_en w1_en r0_en r1_en w0_addr[0] w0_addr[1] w0_addr[2]
+ w0_addr[3] w0_addr[4] w0_addr[5] w0_addr[6] w0_addr[7] w0_addr[8] w1_addr[0] w1_addr[1] w1_addr[2] w1_addr[3]
+ w1_addr[4] w1_addr[5] w1_addr[6] w1_addr[7] w1_addr[8] r0_addr[0] r0_addr[1] r0_addr[2] r0_addr[3] r0_addr[4]
+ r0_addr[5] r0_addr[6] r0_addr[7] r0_addr[8] r1_addr[0] r1_addr[1] r1_addr[2] r1_addr[3] r1_addr[4] r1_addr[5]
+ r1_addr[6] r1_addr[7] r1_addr[8] w0_data[0] w0_data[1] w0_data[2] w0_data[3] w0_data[4] w0_data[5] w0_data[6]
+ w0_data[7] w0_data[8] w0_data[9] w0_data[10] w0_data[11] w0_data[12] w0_data[13] w0_data[14] w0_data[15] w0_data[16]
+ w0_data[17] w0_data[18] w0_data[19] w0_data[20] w0_data[21] w0_data[22] w0_data[23] w0_data[24] w0_data[25]
+ w0_data[26] w0_data[27] w0_data[28] w0_data[29] w0_data[30] w0_data[31] w1_data[0] w1_data[1] w1_data[2] w1_data[3]
+ w1_data[4] w1_data[5] w1_data[6] w1_data[7] w1_data[8] w1_data[9] w1_data[10] w1_data[11] w1_data[12] w1_data[13]
+ w1_data[14] w1_data[15] w1_data[16] w1_data[17] w1_data[18] w1_data[19] w1_data[20] w1_data[21] w1_data[22]
+ w1_data[23] w1_data[24] w1_data[25] w1_data[26] w1_data[27] w1_data[28] w1_data[29] w1_data[30] w1_data[31]
+ r0_data[0] r0_data[1] r0_data[2] r0_data[3] r0_data[4] r0_data[5] r0_data[6] r0_data[7] r0_data[8] r0_data[9]
+ r0_data[10] r0_data[11] r0_data[12] r0_data[13] r0_data[14] r0_data[15] r0_data[16] r0_data[17] r0_data[18]
+ r0_data[19] r0_data[20] r0_data[21] r0_data[22] r0_data[23] r0_data[24] r0_data[25] r0_data[26] r0_data[27]
+ r0_data[28] r0_data[29] r0_data[30] r0_data[31] r1_data[0] r1_data[1] r1_data[2] r1_data[3] r1_data[4] r1_data[5]
+ r1_data[6] r1_data[7] r1_data[8] r1_data[9] r1_data[10] r1_data[11] r1_data[12] r1_data[13] r1_data[14] r1_data[15]
+ r1_data[16] r1_data[17] r1_data[18] r1_data[19] r1_data[20] r1_data[21] r1_data[22] r1_data[23] r1_data[24]
+ r1_data[25] r1_data[26] r1_data[27] r1_data[28] r1_data[29] r1_data[30] r1_data[31] VDD VSS
Xu_t029_026 u_t029_026/c0_w0_bl u_t029_026/c0_w0_br u_t029_026/c0_w1_bl u_t029_026/c0_w1_br u_t029_026/c0_r0_rbl
+ u_t029_026/c0_r1_rbl u_t029_026/c1_w0_bl u_t029_026/c1_w0_br u_t029_026/c1_w1_bl u_t029_026/c1_w1_br
+ u_t029_026/c1_r0_rbl u_t029_026/c1_r1_rbl u_t029_026/c2_w0_bl u_t029_026/c2_w0_br u_t029_026/c2_w1_bl
+ u_t029_026/c2_w1_br u_t029_026/c2_r0_rbl u_t029_026/c2_r1_rbl u_t029_026/c3_w0_bl u_t029_026/c3_w0_br
+ u_t029_026/c3_w1_bl u_t029_026/c3_w1_br u_t029_026/c3_r0_rbl u_t029_026/c3_r1_rbl u_t029_026/r0_w0_wl
+ u_t029_026/r0_w1_wl u_t029_026/r0_r0_rwl u_t029_026/r0_r1_rwl u_t029_026/r1_w0_wl u_t029_026/r1_w1_wl
+ u_t029_026/r1_r0_rwl u_t029_026/r1_r1_rwl u_t029_026/r2_w0_wl u_t029_026/r2_w1_wl u_t029_026/r2_r0_rwl
+ u_t029_026/r2_r1_rwl u_t029_026/r3_w0_wl u_t029_026/r3_w1_wl u_t029_026/r3_r0_rwl u_t029_026/r3_r1_rwl VDD VSS VSUBS
+ gf180mcu_3v3_12t_2r2w_sram_4x4_tile
Xu_t029_015 u_t029_015/c0_w0_bl u_t029_015/c0_w0_br u_t029_015/c0_w1_bl u_t029_015/c0_w1_br u_t029_015/c0_r0_rbl
+ u_t029_015/c0_r1_rbl u_t029_015/c1_w0_bl u_t029_015/c1_w0_br u_t029_015/c1_w1_bl u_t029_015/c1_w1_br
+ u_t029_015/c1_r0_rbl u_t029_015/c1_r1_rbl u_t029_015/c2_w0_bl u_t029_015/c2_w0_br u_t029_015/c2_w1_bl
+ u_t029_015/c2_w1_br u_t029_015/c2_r0_rbl u_t029_015/c2_r1_rbl u_t029_015/c3_w0_bl u_t029_015/c3_w0_br
+ u_t029_015/c3_w1_bl u_t029_015/c3_w1_br u_t029_015/c3_r0_rbl u_t029_015/c3_r1_rbl u_t029_015/r0_w0_wl
+ u_t029_015/r0_w1_wl u_t029_015/r0_r0_rwl u_t029_015/r0_r1_rwl u_t029_015/r1_w0_wl u_t029_015/r1_w1_wl
+ u_t029_015/r1_r0_rwl u_t029_015/r1_r1_rwl u_t029_015/r2_w0_wl u_t029_015/r2_w1_wl u_t029_015/r2_r0_rwl
+ u_t029_015/r2_r1_rwl u_t029_015/r3_w0_wl u_t029_015/r3_w1_wl u_t029_015/r3_r0_rwl u_t029_015/r3_r1_rwl VDD VSS VSUBS
+ gf180mcu_3v3_12t_2r2w_sram_4x4_tile
Xu_t029_004 u_t029_004/c0_w0_bl u_t029_004/c0_w0_br u_t029_004/c0_w1_bl u_t029_004/c0_w1_br u_t029_004/c0_r0_rbl
+ u_t029_004/c0_r1_rbl u_t029_004/c1_w0_bl u_t029_004/c1_w0_br u_t029_004/c1_w1_bl u_t029_004/c1_w1_br
+ u_t029_004/c1_r0_rbl u_t029_004/c1_r1_rbl u_t029_004/c2_w0_bl u_t029_004/c2_w0_br u_t029_004/c2_w1_bl
+ u_t029_004/c2_w1_br u_t029_004/c2_r0_rbl u_t029_004/c2_r1_rbl u_t029_004/c3_w0_bl u_t029_004/c3_w0_br
+ u_t029_004/c3_w1_bl u_t029_004/c3_w1_br u_t029_004/c3_r0_rbl u_t029_004/c3_r1_rbl u_t029_004/r0_w0_wl
+ u_t029_004/r0_w1_wl u_t029_004/r0_r0_rwl u_t029_004/r0_r1_rwl u_t029_004/r1_w0_wl u_t029_004/r1_w1_wl
+ u_t029_004/r1_r0_rwl u_t029_004/r1_r1_rwl u_t029_004/r2_w0_wl u_t029_004/r2_w1_wl u_t029_004/r2_r0_rwl
+ u_t029_004/r2_r1_rwl u_t029_004/r3_w0_wl u_t029_004/r3_w1_wl u_t029_004/r3_r0_rwl u_t029_004/r3_r1_rwl VDD VSS VSUBS
+ gf180mcu_3v3_12t_2r2w_sram_4x4_tile
Xu_t026_029 u_t026_029/c0_w0_bl u_t026_029/c0_w0_br u_t026_029/c0_w1_bl u_t026_029/c0_w1_br u_t026_029/c0_r0_rbl
+ u_t026_029/c0_r1_rbl u_t026_029/c1_w0_bl u_t026_029/c1_w0_br u_t026_029/c1_w1_bl u_t026_029/c1_w1_br
+ u_t026_029/c1_r0_rbl u_t026_029/c1_r1_rbl u_t026_029/c2_w0_bl u_t026_029/c2_w0_br u_t026_029/c2_w1_bl
+ u_t026_029/c2_w1_br u_t026_029/c2_r0_rbl u_t026_029/c2_r1_rbl u_t026_029/c3_w0_bl u_t026_029/c3_w0_br
+ u_t026_029/c3_w1_bl u_t026_029/c3_w1_br u_t026_029/c3_r0_rbl u_t026_029/c3_r1_rbl u_t026_029/r0_w0_wl
+ u_t026_029/r0_w1_wl u_t026_029/r0_r0_rwl u_t026_029/r0_r1_rwl u_t026_029/r1_w0_wl u_t026_029/r1_w1_wl
+ u_t026_029/r1_r0_rwl u_t026_029/r1_r1_rwl u_t026_029/r2_w0_wl u_t026_029/r2_w1_wl u_t026_029/r2_r0_rwl
+ u_t026_029/r2_r1_rwl u_t026_029/r3_w0_wl u_t026_029/r3_w1_wl u_t026_029/r3_r0_rwl u_t026_029/r3_r1_rwl VDD VSS VSUBS
+ gf180mcu_3v3_12t_2r2w_sram_4x4_tile
Xu_t026_018 u_t026_018/c0_w0_bl u_t026_018/c0_w0_br u_t026_018/c0_w1_bl u_t026_018/c0_w1_br u_t026_018/c0_r0_rbl
+ u_t026_018/c0_r1_rbl u_t026_018/c1_w0_bl u_t026_018/c1_w0_br u_t026_018/c1_w1_bl u_t026_018/c1_w1_br
+ u_t026_018/c1_r0_rbl u_t026_018/c1_r1_rbl u_t026_018/c2_w0_bl u_t026_018/c2_w0_br u_t026_018/c2_w1_bl
+ u_t026_018/c2_w1_br u_t026_018/c2_r0_rbl u_t026_018/c2_r1_rbl u_t026_018/c3_w0_bl u_t026_018/c3_w0_br
+ u_t026_018/c3_w1_bl u_t026_018/c3_w1_br u_t026_018/c3_r0_rbl u_t026_018/c3_r1_rbl u_t026_018/r0_w0_wl
+ u_t026_018/r0_w1_wl u_t026_018/r0_r0_rwl u_t026_018/r0_r1_rwl u_t026_018/r1_w0_wl u_t026_018/r1_w1_wl
+ u_t026_018/r1_r0_rwl u_t026_018/r1_r1_rwl u_t026_018/r2_w0_wl u_t026_018/r2_w1_wl u_t026_018/r2_r0_rwl
+ u_t026_018/r2_r1_rwl u_t026_018/r3_w0_wl u_t026_018/r3_w1_wl u_t026_018/r3_r0_rwl u_t026_018/r3_r1_rwl VDD VSS VSUBS
+ gf180mcu_3v3_12t_2r2w_sram_4x4_tile
Xu_t026_007 u_t026_007/c0_w0_bl u_t026_007/c0_w0_br u_t026_007/c0_w1_bl u_t026_007/c0_w1_br u_t026_007/c0_r0_rbl
+ u_t026_007/c0_r1_rbl u_t026_007/c1_w0_bl u_t026_007/c1_w0_br u_t026_007/c1_w1_bl u_t026_007/c1_w1_br
+ u_t026_007/c1_r0_rbl u_t026_007/c1_r1_rbl u_t026_007/c2_w0_bl u_t026_007/c2_w0_br u_t026_007/c2_w1_bl
+ u_t026_007/c2_w1_br u_t026_007/c2_r0_rbl u_t026_007/c2_r1_rbl u_t026_007/c3_w0_bl u_t026_007/c3_w0_br
+ u_t026_007/c3_w1_bl u_t026_007/c3_w1_br u_t026_007/c3_r0_rbl u_t026_007/c3_r1_rbl u_t026_007/r0_w0_wl
+ u_t026_007/r0_w1_wl u_t026_007/r0_r0_rwl u_t026_007/r0_r1_rwl u_t026_007/r1_w0_wl u_t026_007/r1_w1_wl
+ u_t026_007/r1_r0_rwl u_t026_007/r1_r1_rwl u_t026_007/r2_w0_wl u_t026_007/r2_w1_wl u_t026_007/r2_r0_rwl
+ u_t026_007/r2_r1_rwl u_t026_007/r3_w0_wl u_t026_007/r3_w1_wl u_t026_007/r3_r0_rwl u_t026_007/r3_r1_rwl VDD VSS VSUBS
+ gf180mcu_3v3_12t_2r2w_sram_4x4_tile
Xu_t017_029 u_t017_029/c0_w0_bl u_t017_029/c0_w0_br u_t017_029/c0_w1_bl u_t017_029/c0_w1_br u_t017_029/c0_r0_rbl
+ u_t017_029/c0_r1_rbl u_t017_029/c1_w0_bl u_t017_029/c1_w0_br u_t017_029/c1_w1_bl u_t017_029/c1_w1_br
+ u_t017_029/c1_r0_rbl u_t017_029/c1_r1_rbl u_t017_029/c2_w0_bl u_t017_029/c2_w0_br u_t017_029/c2_w1_bl
+ u_t017_029/c2_w1_br u_t017_029/c2_r0_rbl u_t017_029/c2_r1_rbl u_t017_029/c3_w0_bl u_t017_029/c3_w0_br
+ u_t017_029/c3_w1_bl u_t017_029/c3_w1_br u_t017_029/c3_r0_rbl u_t017_029/c3_r1_rbl u_t017_029/r0_w0_wl
+ u_t017_029/r0_w1_wl u_t017_029/r0_r0_rwl u_t017_029/r0_r1_rwl u_t017_029/r1_w0_wl u_t017_029/r1_w1_wl
+ u_t017_029/r1_r0_rwl u_t017_029/r1_r1_rwl u_t017_029/r2_w0_wl u_t017_029/r2_w1_wl u_t017_029/r2_r0_rwl
+ u_t017_029/r2_r1_rwl u_t017_029/r3_w0_wl u_t017_029/r3_w1_wl u_t017_029/r3_r0_rwl u_t017_029/r3_r1_rwl VDD VSS VSUBS
+ gf180mcu_3v3_12t_2r2w_sram_4x4_tile
Xu_t017_018 u_t017_018/c0_w0_bl u_t017_018/c0_w0_br u_t017_018/c0_w1_bl u_t017_018/c0_w1_br u_t017_018/c0_r0_rbl
+ u_t017_018/c0_r1_rbl u_t017_018/c1_w0_bl u_t017_018/c1_w0_br u_t017_018/c1_w1_bl u_t017_018/c1_w1_br
+ u_t017_018/c1_r0_rbl u_t017_018/c1_r1_rbl u_t017_018/c2_w0_bl u_t017_018/c2_w0_br u_t017_018/c2_w1_bl
+ u_t017_018/c2_w1_br u_t017_018/c2_r0_rbl u_t017_018/c2_r1_rbl u_t017_018/c3_w0_bl u_t017_018/c3_w0_br
+ u_t017_018/c3_w1_bl u_t017_018/c3_w1_br u_t017_018/c3_r0_rbl u_t017_018/c3_r1_rbl u_t017_018/r0_w0_wl
+ u_t017_018/r0_w1_wl u_t017_018/r0_r0_rwl u_t017_018/r0_r1_rwl u_t017_018/r1_w0_wl u_t017_018/r1_w1_wl
+ u_t017_018/r1_r0_rwl u_t017_018/r1_r1_rwl u_t017_018/r2_w0_wl u_t017_018/r2_w1_wl u_t017_018/r2_r0_rwl
+ u_t017_018/r2_r1_rwl u_t017_018/r3_w0_wl u_t017_018/r3_w1_wl u_t017_018/r3_r0_rwl u_t017_018/r3_r1_rwl VDD VSS VSUBS
+ gf180mcu_3v3_12t_2r2w_sram_4x4_tile
Xu_t017_007 u_t017_007/c0_w0_bl u_t017_007/c0_w0_br u_t017_007/c0_w1_bl u_t017_007/c0_w1_br u_t017_007/c0_r0_rbl
+ u_t017_007/c0_r1_rbl u_t017_007/c1_w0_bl u_t017_007/c1_w0_br u_t017_007/c1_w1_bl u_t017_007/c1_w1_br
+ u_t017_007/c1_r0_rbl u_t017_007/c1_r1_rbl u_t017_007/c2_w0_bl u_t017_007/c2_w0_br u_t017_007/c2_w1_bl
+ u_t017_007/c2_w1_br u_t017_007/c2_r0_rbl u_t017_007/c2_r1_rbl u_t017_007/c3_w0_bl u_t017_007/c3_w0_br
+ u_t017_007/c3_w1_bl u_t017_007/c3_w1_br u_t017_007/c3_r0_rbl u_t017_007/c3_r1_rbl u_t017_007/r0_w0_wl
+ u_t017_007/r0_w1_wl u_t017_007/r0_r0_rwl u_t017_007/r0_r1_rwl u_t017_007/r1_w0_wl u_t017_007/r1_w1_wl
+ u_t017_007/r1_r0_rwl u_t017_007/r1_r1_rwl u_t017_007/r2_w0_wl u_t017_007/r2_w1_wl u_t017_007/r2_r0_rwl
+ u_t017_007/r2_r1_rwl u_t017_007/r3_w0_wl u_t017_007/r3_w1_wl u_t017_007/r3_r0_rwl u_t017_007/r3_r1_rwl VDD VSS VSUBS
+ gf180mcu_3v3_12t_2r2w_sram_4x4_tile
Xu_t031_010 u_t031_010/c0_w0_bl u_t031_010/c0_w0_br u_t031_010/c0_w1_bl u_t031_010/c0_w1_br u_t031_010/c0_r0_rbl
+ u_t031_010/c0_r1_rbl u_t031_010/c1_w0_bl u_t031_010/c1_w0_br u_t031_010/c1_w1_bl u_t031_010/c1_w1_br
+ u_t031_010/c1_r0_rbl u_t031_010/c1_r1_rbl u_t031_010/c2_w0_bl u_t031_010/c2_w0_br u_t031_010/c2_w1_bl
+ u_t031_010/c2_w1_br u_t031_010/c2_r0_rbl u_t031_010/c2_r1_rbl u_t031_010/c3_w0_bl u_t031_010/c3_w0_br
+ u_t031_010/c3_w1_bl u_t031_010/c3_w1_br u_t031_010/c3_r0_rbl u_t031_010/c3_r1_rbl u_t031_010/r0_w0_wl
+ u_t031_010/r0_w1_wl u_t031_010/r0_r0_rwl u_t031_010/r0_r1_rwl u_t031_010/r1_w0_wl u_t031_010/r1_w1_wl
+ u_t031_010/r1_r0_rwl u_t031_010/r1_r1_rwl u_t031_010/r2_w0_wl u_t031_010/r2_w1_wl u_t031_010/r2_r0_rwl
+ u_t031_010/r2_r1_rwl u_t031_010/r3_w0_wl u_t031_010/r3_w1_wl u_t031_010/r3_r0_rwl u_t031_010/r3_r1_rwl VDD VSS VSUBS
+ gf180mcu_3v3_12t_2r2w_sram_4x4_tile
Xu_t008_007 u_t008_007/c0_w0_bl u_t008_007/c0_w0_br u_t008_007/c0_w1_bl u_t008_007/c0_w1_br u_t008_007/c0_r0_rbl
+ u_t008_007/c0_r1_rbl u_t008_007/c1_w0_bl u_t008_007/c1_w0_br u_t008_007/c1_w1_bl u_t008_007/c1_w1_br
+ u_t008_007/c1_r0_rbl u_t008_007/c1_r1_rbl u_t008_007/c2_w0_bl u_t008_007/c2_w0_br u_t008_007/c2_w1_bl
+ u_t008_007/c2_w1_br u_t008_007/c2_r0_rbl u_t008_007/c2_r1_rbl u_t008_007/c3_w0_bl u_t008_007/c3_w0_br
+ u_t008_007/c3_w1_bl u_t008_007/c3_w1_br u_t008_007/c3_r0_rbl u_t008_007/c3_r1_rbl u_t008_007/r0_w0_wl
+ u_t008_007/r0_w1_wl u_t008_007/r0_r0_rwl u_t008_007/r0_r1_rwl u_t008_007/r1_w0_wl u_t008_007/r1_w1_wl
+ u_t008_007/r1_r0_rwl u_t008_007/r1_r1_rwl u_t008_007/r2_w0_wl u_t008_007/r2_w1_wl u_t008_007/r2_r0_rwl
+ u_t008_007/r2_r1_rwl u_t008_007/r3_w0_wl u_t008_007/r3_w1_wl u_t008_007/r3_r0_rwl u_t008_007/r3_r1_rwl VDD VSS VSUBS
+ gf180mcu_3v3_12t_2r2w_sram_4x4_tile
Xu_t008_018 u_t008_018/c0_w0_bl u_t008_018/c0_w0_br u_t008_018/c0_w1_bl u_t008_018/c0_w1_br u_t008_018/c0_r0_rbl
+ u_t008_018/c0_r1_rbl u_t008_018/c1_w0_bl u_t008_018/c1_w0_br u_t008_018/c1_w1_bl u_t008_018/c1_w1_br
+ u_t008_018/c1_r0_rbl u_t008_018/c1_r1_rbl u_t008_018/c2_w0_bl u_t008_018/c2_w0_br u_t008_018/c2_w1_bl
+ u_t008_018/c2_w1_br u_t008_018/c2_r0_rbl u_t008_018/c2_r1_rbl u_t008_018/c3_w0_bl u_t008_018/c3_w0_br
+ u_t008_018/c3_w1_bl u_t008_018/c3_w1_br u_t008_018/c3_r0_rbl u_t008_018/c3_r1_rbl u_t008_018/r0_w0_wl
+ u_t008_018/r0_w1_wl u_t008_018/r0_r0_rwl u_t008_018/r0_r1_rwl u_t008_018/r1_w0_wl u_t008_018/r1_w1_wl
+ u_t008_018/r1_r0_rwl u_t008_018/r1_r1_rwl u_t008_018/r2_w0_wl u_t008_018/r2_w1_wl u_t008_018/r2_r0_rwl
+ u_t008_018/r2_r1_rwl u_t008_018/r3_w0_wl u_t008_018/r3_w1_wl u_t008_018/r3_r0_rwl u_t008_018/r3_r1_rwl VDD VSS VSUBS
+ gf180mcu_3v3_12t_2r2w_sram_4x4_tile
Xu_t008_029 u_t008_029/c0_w0_bl u_t008_029/c0_w0_br u_t008_029/c0_w1_bl u_t008_029/c0_w1_br u_t008_029/c0_r0_rbl
+ u_t008_029/c0_r1_rbl u_t008_029/c1_w0_bl u_t008_029/c1_w0_br u_t008_029/c1_w1_bl u_t008_029/c1_w1_br
+ u_t008_029/c1_r0_rbl u_t008_029/c1_r1_rbl u_t008_029/c2_w0_bl u_t008_029/c2_w0_br u_t008_029/c2_w1_bl
+ u_t008_029/c2_w1_br u_t008_029/c2_r0_rbl u_t008_029/c2_r1_rbl u_t008_029/c3_w0_bl u_t008_029/c3_w0_br
+ u_t008_029/c3_w1_bl u_t008_029/c3_w1_br u_t008_029/c3_r0_rbl u_t008_029/c3_r1_rbl u_t008_029/r0_w0_wl
+ u_t008_029/r0_w1_wl u_t008_029/r0_r0_rwl u_t008_029/r0_r1_rwl u_t008_029/r1_w0_wl u_t008_029/r1_w1_wl
+ u_t008_029/r1_r0_rwl u_t008_029/r1_r1_rwl u_t008_029/r2_w0_wl u_t008_029/r2_w1_wl u_t008_029/r2_r0_rwl
+ u_t008_029/r2_r1_rwl u_t008_029/r3_w0_wl u_t008_029/r3_w1_wl u_t008_029/r3_r0_rwl u_t008_029/r3_r1_rwl VDD VSS VSUBS
+ gf180mcu_3v3_12t_2r2w_sram_4x4_tile
Xu_t031_021 u_t031_021/c0_w0_bl u_t031_021/c0_w0_br u_t031_021/c0_w1_bl u_t031_021/c0_w1_br u_t031_021/c0_r0_rbl
+ u_t031_021/c0_r1_rbl u_t031_021/c1_w0_bl u_t031_021/c1_w0_br u_t031_021/c1_w1_bl u_t031_021/c1_w1_br
+ u_t031_021/c1_r0_rbl u_t031_021/c1_r1_rbl u_t031_021/c2_w0_bl u_t031_021/c2_w0_br u_t031_021/c2_w1_bl
+ u_t031_021/c2_w1_br u_t031_021/c2_r0_rbl u_t031_021/c2_r1_rbl u_t031_021/c3_w0_bl u_t031_021/c3_w0_br
+ u_t031_021/c3_w1_bl u_t031_021/c3_w1_br u_t031_021/c3_r0_rbl u_t031_021/c3_r1_rbl u_t031_021/r0_w0_wl
+ u_t031_021/r0_w1_wl u_t031_021/r0_r0_rwl u_t031_021/r0_r1_rwl u_t031_021/r1_w0_wl u_t031_021/r1_w1_wl
+ u_t031_021/r1_r0_rwl u_t031_021/r1_r1_rwl u_t031_021/r2_w0_wl u_t031_021/r2_w1_wl u_t031_021/r2_r0_rwl
+ u_t031_021/r2_r1_rwl u_t031_021/r3_w0_wl u_t031_021/r3_w1_wl u_t031_021/r3_r0_rwl u_t031_021/r3_r1_rwl VDD VSS VSUBS
+ gf180mcu_3v3_12t_2r2w_sram_4x4_tile
Xu_t022_021 u_t022_021/c0_w0_bl u_t022_021/c0_w0_br u_t022_021/c0_w1_bl u_t022_021/c0_w1_br u_t022_021/c0_r0_rbl
+ u_t022_021/c0_r1_rbl u_t022_021/c1_w0_bl u_t022_021/c1_w0_br u_t022_021/c1_w1_bl u_t022_021/c1_w1_br
+ u_t022_021/c1_r0_rbl u_t022_021/c1_r1_rbl u_t022_021/c2_w0_bl u_t022_021/c2_w0_br u_t022_021/c2_w1_bl
+ u_t022_021/c2_w1_br u_t022_021/c2_r0_rbl u_t022_021/c2_r1_rbl u_t022_021/c3_w0_bl u_t022_021/c3_w0_br
+ u_t022_021/c3_w1_bl u_t022_021/c3_w1_br u_t022_021/c3_r0_rbl u_t022_021/c3_r1_rbl u_t022_021/r0_w0_wl
+ u_t022_021/r0_w1_wl u_t022_021/r0_r0_rwl u_t022_021/r0_r1_rwl u_t022_021/r1_w0_wl u_t022_021/r1_w1_wl
+ u_t022_021/r1_r0_rwl u_t022_021/r1_r1_rwl u_t022_021/r2_w0_wl u_t022_021/r2_w1_wl u_t022_021/r2_r0_rwl
+ u_t022_021/r2_r1_rwl u_t022_021/r3_w0_wl u_t022_021/r3_w1_wl u_t022_021/r3_r0_rwl u_t022_021/r3_r1_rwl VDD VSS VSUBS
+ gf180mcu_3v3_12t_2r2w_sram_4x4_tile
Xu_t022_010 u_t022_010/c0_w0_bl u_t022_010/c0_w0_br u_t022_010/c0_w1_bl u_t022_010/c0_w1_br u_t022_010/c0_r0_rbl
+ u_t022_010/c0_r1_rbl u_t022_010/c1_w0_bl u_t022_010/c1_w0_br u_t022_010/c1_w1_bl u_t022_010/c1_w1_br
+ u_t022_010/c1_r0_rbl u_t022_010/c1_r1_rbl u_t022_010/c2_w0_bl u_t022_010/c2_w0_br u_t022_010/c2_w1_bl
+ u_t022_010/c2_w1_br u_t022_010/c2_r0_rbl u_t022_010/c2_r1_rbl u_t022_010/c3_w0_bl u_t022_010/c3_w0_br
+ u_t022_010/c3_w1_bl u_t022_010/c3_w1_br u_t022_010/c3_r0_rbl u_t022_010/c3_r1_rbl u_t022_010/r0_w0_wl
+ u_t022_010/r0_w1_wl u_t022_010/r0_r0_rwl u_t022_010/r0_r1_rwl u_t022_010/r1_w0_wl u_t022_010/r1_w1_wl
+ u_t022_010/r1_r0_rwl u_t022_010/r1_r1_rwl u_t022_010/r2_w0_wl u_t022_010/r2_w1_wl u_t022_010/r2_r0_rwl
+ u_t022_010/r2_r1_rwl u_t022_010/r3_w0_wl u_t022_010/r3_w1_wl u_t022_010/r3_r0_rwl u_t022_010/r3_r1_rwl VDD VSS VSUBS
+ gf180mcu_3v3_12t_2r2w_sram_4x4_tile
Xu_t013_021 u_t013_021/c0_w0_bl u_t013_021/c0_w0_br u_t013_021/c0_w1_bl u_t013_021/c0_w1_br u_t013_021/c0_r0_rbl
+ u_t013_021/c0_r1_rbl u_t013_021/c1_w0_bl u_t013_021/c1_w0_br u_t013_021/c1_w1_bl u_t013_021/c1_w1_br
+ u_t013_021/c1_r0_rbl u_t013_021/c1_r1_rbl u_t013_021/c2_w0_bl u_t013_021/c2_w0_br u_t013_021/c2_w1_bl
+ u_t013_021/c2_w1_br u_t013_021/c2_r0_rbl u_t013_021/c2_r1_rbl u_t013_021/c3_w0_bl u_t013_021/c3_w0_br
+ u_t013_021/c3_w1_bl u_t013_021/c3_w1_br u_t013_021/c3_r0_rbl u_t013_021/c3_r1_rbl u_t013_021/r0_w0_wl
+ u_t013_021/r0_w1_wl u_t013_021/r0_r0_rwl u_t013_021/r0_r1_rwl u_t013_021/r1_w0_wl u_t013_021/r1_w1_wl
+ u_t013_021/r1_r0_rwl u_t013_021/r1_r1_rwl u_t013_021/r2_w0_wl u_t013_021/r2_w1_wl u_t013_021/r2_r0_rwl
+ u_t013_021/r2_r1_rwl u_t013_021/r3_w0_wl u_t013_021/r3_w1_wl u_t013_021/r3_r0_rwl u_t013_021/r3_r1_rwl VDD VSS VSUBS
+ gf180mcu_3v3_12t_2r2w_sram_4x4_tile
Xu_t013_010 u_t013_010/c0_w0_bl u_t013_010/c0_w0_br u_t013_010/c0_w1_bl u_t013_010/c0_w1_br u_t013_010/c0_r0_rbl
+ u_t013_010/c0_r1_rbl u_t013_010/c1_w0_bl u_t013_010/c1_w0_br u_t013_010/c1_w1_bl u_t013_010/c1_w1_br
+ u_t013_010/c1_r0_rbl u_t013_010/c1_r1_rbl u_t013_010/c2_w0_bl u_t013_010/c2_w0_br u_t013_010/c2_w1_bl
+ u_t013_010/c2_w1_br u_t013_010/c2_r0_rbl u_t013_010/c2_r1_rbl u_t013_010/c3_w0_bl u_t013_010/c3_w0_br
+ u_t013_010/c3_w1_bl u_t013_010/c3_w1_br u_t013_010/c3_r0_rbl u_t013_010/c3_r1_rbl u_t013_010/r0_w0_wl
+ u_t013_010/r0_w1_wl u_t013_010/r0_r0_rwl u_t013_010/r0_r1_rwl u_t013_010/r1_w0_wl u_t013_010/r1_w1_wl
+ u_t013_010/r1_r0_rwl u_t013_010/r1_r1_rwl u_t013_010/r2_w0_wl u_t013_010/r2_w1_wl u_t013_010/r2_r0_rwl
+ u_t013_010/r2_r1_rwl u_t013_010/r3_w0_wl u_t013_010/r3_w1_wl u_t013_010/r3_r0_rwl u_t013_010/r3_r1_rwl VDD VSS VSUBS
+ gf180mcu_3v3_12t_2r2w_sram_4x4_tile
Xu_t004_010 u_t004_010/c0_w0_bl u_t004_010/c0_w0_br u_t004_010/c0_w1_bl u_t004_010/c0_w1_br u_t004_010/c0_r0_rbl
+ u_t004_010/c0_r1_rbl u_t004_010/c1_w0_bl u_t004_010/c1_w0_br u_t004_010/c1_w1_bl u_t004_010/c1_w1_br
+ u_t004_010/c1_r0_rbl u_t004_010/c1_r1_rbl u_t004_010/c2_w0_bl u_t004_010/c2_w0_br u_t004_010/c2_w1_bl
+ u_t004_010/c2_w1_br u_t004_010/c2_r0_rbl u_t004_010/c2_r1_rbl u_t004_010/c3_w0_bl u_t004_010/c3_w0_br
+ u_t004_010/c3_w1_bl u_t004_010/c3_w1_br u_t004_010/c3_r0_rbl u_t004_010/c3_r1_rbl u_t004_010/r0_w0_wl
+ u_t004_010/r0_w1_wl u_t004_010/r0_r0_rwl u_t004_010/r0_r1_rwl u_t004_010/r1_w0_wl u_t004_010/r1_w1_wl
+ u_t004_010/r1_r0_rwl u_t004_010/r1_r1_rwl u_t004_010/r2_w0_wl u_t004_010/r2_w1_wl u_t004_010/r2_r0_rwl
+ u_t004_010/r2_r1_rwl u_t004_010/r3_w0_wl u_t004_010/r3_w1_wl u_t004_010/r3_r0_rwl u_t004_010/r3_r1_rwl VDD VSS VSUBS
+ gf180mcu_3v3_12t_2r2w_sram_4x4_tile
Xu_t004_021 u_t004_021/c0_w0_bl u_t004_021/c0_w0_br u_t004_021/c0_w1_bl u_t004_021/c0_w1_br u_t004_021/c0_r0_rbl
+ u_t004_021/c0_r1_rbl u_t004_021/c1_w0_bl u_t004_021/c1_w0_br u_t004_021/c1_w1_bl u_t004_021/c1_w1_br
+ u_t004_021/c1_r0_rbl u_t004_021/c1_r1_rbl u_t004_021/c2_w0_bl u_t004_021/c2_w0_br u_t004_021/c2_w1_bl
+ u_t004_021/c2_w1_br u_t004_021/c2_r0_rbl u_t004_021/c2_r1_rbl u_t004_021/c3_w0_bl u_t004_021/c3_w0_br
+ u_t004_021/c3_w1_bl u_t004_021/c3_w1_br u_t004_021/c3_r0_rbl u_t004_021/c3_r1_rbl u_t004_021/r0_w0_wl
+ u_t004_021/r0_w1_wl u_t004_021/r0_r0_rwl u_t004_021/r0_r1_rwl u_t004_021/r1_w0_wl u_t004_021/r1_w1_wl
+ u_t004_021/r1_r0_rwl u_t004_021/r1_r1_rwl u_t004_021/r2_w0_wl u_t004_021/r2_w1_wl u_t004_021/r2_r0_rwl
+ u_t004_021/r2_r1_rwl u_t004_021/r3_w0_wl u_t004_021/r3_w1_wl u_t004_021/r3_r0_rwl u_t004_021/r3_r1_rwl VDD VSS VSUBS
+ gf180mcu_3v3_12t_2r2w_sram_4x4_tile
Xu_t010_002 u_t010_002/c0_w0_bl u_t010_002/c0_w0_br u_t010_002/c0_w1_bl u_t010_002/c0_w1_br u_t010_002/c0_r0_rbl
+ u_t010_002/c0_r1_rbl u_t010_002/c1_w0_bl u_t010_002/c1_w0_br u_t010_002/c1_w1_bl u_t010_002/c1_w1_br
+ u_t010_002/c1_r0_rbl u_t010_002/c1_r1_rbl u_t010_002/c2_w0_bl u_t010_002/c2_w0_br u_t010_002/c2_w1_bl
+ u_t010_002/c2_w1_br u_t010_002/c2_r0_rbl u_t010_002/c2_r1_rbl u_t010_002/c3_w0_bl u_t010_002/c3_w0_br
+ u_t010_002/c3_w1_bl u_t010_002/c3_w1_br u_t010_002/c3_r0_rbl u_t010_002/c3_r1_rbl u_t010_002/r0_w0_wl
+ u_t010_002/r0_w1_wl u_t010_002/r0_r0_rwl u_t010_002/r0_r1_rwl u_t010_002/r1_w0_wl u_t010_002/r1_w1_wl
+ u_t010_002/r1_r0_rwl u_t010_002/r1_r1_rwl u_t010_002/r2_w0_wl u_t010_002/r2_w1_wl u_t010_002/r2_r0_rwl
+ u_t010_002/r2_r1_rwl u_t010_002/r3_w0_wl u_t010_002/r3_w1_wl u_t010_002/r3_r0_rwl u_t010_002/r3_r1_rwl VDD VSS VSUBS
+ gf180mcu_3v3_12t_2r2w_sram_4x4_tile
Xu_t010_013 u_t010_013/c0_w0_bl u_t010_013/c0_w0_br u_t010_013/c0_w1_bl u_t010_013/c0_w1_br u_t010_013/c0_r0_rbl
+ u_t010_013/c0_r1_rbl u_t010_013/c1_w0_bl u_t010_013/c1_w0_br u_t010_013/c1_w1_bl u_t010_013/c1_w1_br
+ u_t010_013/c1_r0_rbl u_t010_013/c1_r1_rbl u_t010_013/c2_w0_bl u_t010_013/c2_w0_br u_t010_013/c2_w1_bl
+ u_t010_013/c2_w1_br u_t010_013/c2_r0_rbl u_t010_013/c2_r1_rbl u_t010_013/c3_w0_bl u_t010_013/c3_w0_br
+ u_t010_013/c3_w1_bl u_t010_013/c3_w1_br u_t010_013/c3_r0_rbl u_t010_013/c3_r1_rbl u_t010_013/r0_w0_wl
+ u_t010_013/r0_w1_wl u_t010_013/r0_r0_rwl u_t010_013/r0_r1_rwl u_t010_013/r1_w0_wl u_t010_013/r1_w1_wl
+ u_t010_013/r1_r0_rwl u_t010_013/r1_r1_rwl u_t010_013/r2_w0_wl u_t010_013/r2_w1_wl u_t010_013/r2_r0_rwl
+ u_t010_013/r2_r1_rwl u_t010_013/r3_w0_wl u_t010_013/r3_w1_wl u_t010_013/r3_r0_rwl u_t010_013/r3_r1_rwl VDD VSS VSUBS
+ gf180mcu_3v3_12t_2r2w_sram_4x4_tile
Xu_t010_024 u_t010_024/c0_w0_bl u_t010_024/c0_w0_br u_t010_024/c0_w1_bl u_t010_024/c0_w1_br u_t010_024/c0_r0_rbl
+ u_t010_024/c0_r1_rbl u_t010_024/c1_w0_bl u_t010_024/c1_w0_br u_t010_024/c1_w1_bl u_t010_024/c1_w1_br
+ u_t010_024/c1_r0_rbl u_t010_024/c1_r1_rbl u_t010_024/c2_w0_bl u_t010_024/c2_w0_br u_t010_024/c2_w1_bl
+ u_t010_024/c2_w1_br u_t010_024/c2_r0_rbl u_t010_024/c2_r1_rbl u_t010_024/c3_w0_bl u_t010_024/c3_w0_br
+ u_t010_024/c3_w1_bl u_t010_024/c3_w1_br u_t010_024/c3_r0_rbl u_t010_024/c3_r1_rbl u_t010_024/r0_w0_wl
+ u_t010_024/r0_w1_wl u_t010_024/r0_r0_rwl u_t010_024/r0_r1_rwl u_t010_024/r1_w0_wl u_t010_024/r1_w1_wl
+ u_t010_024/r1_r0_rwl u_t010_024/r1_r1_rwl u_t010_024/r2_w0_wl u_t010_024/r2_w1_wl u_t010_024/r2_r0_rwl
+ u_t010_024/r2_r1_rwl u_t010_024/r3_w0_wl u_t010_024/r3_w1_wl u_t010_024/r3_r0_rwl u_t010_024/r3_r1_rwl VDD VSS VSUBS
+ gf180mcu_3v3_12t_2r2w_sram_4x4_tile
Xu_t001_024 u_t001_024/c0_w0_bl u_t001_024/c0_w0_br u_t001_024/c0_w1_bl u_t001_024/c0_w1_br u_t001_024/c0_r0_rbl
+ u_t001_024/c0_r1_rbl u_t001_024/c1_w0_bl u_t001_024/c1_w0_br u_t001_024/c1_w1_bl u_t001_024/c1_w1_br
+ u_t001_024/c1_r0_rbl u_t001_024/c1_r1_rbl u_t001_024/c2_w0_bl u_t001_024/c2_w0_br u_t001_024/c2_w1_bl
+ u_t001_024/c2_w1_br u_t001_024/c2_r0_rbl u_t001_024/c2_r1_rbl u_t001_024/c3_w0_bl u_t001_024/c3_w0_br
+ u_t001_024/c3_w1_bl u_t001_024/c3_w1_br u_t001_024/c3_r0_rbl u_t001_024/c3_r1_rbl u_t001_024/r0_w0_wl
+ u_t001_024/r0_w1_wl u_t001_024/r0_r0_rwl u_t001_024/r0_r1_rwl u_t001_024/r1_w0_wl u_t001_024/r1_w1_wl
+ u_t001_024/r1_r0_rwl u_t001_024/r1_r1_rwl u_t001_024/r2_w0_wl u_t001_024/r2_w1_wl u_t001_024/r2_r0_rwl
+ u_t001_024/r2_r1_rwl u_t001_024/r3_w0_wl u_t001_024/r3_w1_wl u_t001_024/r3_r0_rwl u_t001_024/r3_r1_rwl VDD VSS VSUBS
+ gf180mcu_3v3_12t_2r2w_sram_4x4_tile
Xu_t001_013 u_t001_013/c0_w0_bl u_t001_013/c0_w0_br u_t001_013/c0_w1_bl u_t001_013/c0_w1_br u_t001_013/c0_r0_rbl
+ u_t001_013/c0_r1_rbl u_t001_013/c1_w0_bl u_t001_013/c1_w0_br u_t001_013/c1_w1_bl u_t001_013/c1_w1_br
+ u_t001_013/c1_r0_rbl u_t001_013/c1_r1_rbl u_t001_013/c2_w0_bl u_t001_013/c2_w0_br u_t001_013/c2_w1_bl
+ u_t001_013/c2_w1_br u_t001_013/c2_r0_rbl u_t001_013/c2_r1_rbl u_t001_013/c3_w0_bl u_t001_013/c3_w0_br
+ u_t001_013/c3_w1_bl u_t001_013/c3_w1_br u_t001_013/c3_r0_rbl u_t001_013/c3_r1_rbl u_t001_013/r0_w0_wl
+ u_t001_013/r0_w1_wl u_t001_013/r0_r0_rwl u_t001_013/r0_r1_rwl u_t001_013/r1_w0_wl u_t001_013/r1_w1_wl
+ u_t001_013/r1_r0_rwl u_t001_013/r1_r1_rwl u_t001_013/r2_w0_wl u_t001_013/r2_w1_wl u_t001_013/r2_r0_rwl
+ u_t001_013/r2_r1_rwl u_t001_013/r3_w0_wl u_t001_013/r3_w1_wl u_t001_013/r3_r0_rwl u_t001_013/r3_r1_rwl VDD VSS VSUBS
+ gf180mcu_3v3_12t_2r2w_sram_4x4_tile
Xu_t001_002 u_t001_002/c0_w0_bl u_t001_002/c0_w0_br u_t001_002/c0_w1_bl u_t001_002/c0_w1_br u_t001_002/c0_r0_rbl
+ u_t001_002/c0_r1_rbl u_t001_002/c1_w0_bl u_t001_002/c1_w0_br u_t001_002/c1_w1_bl u_t001_002/c1_w1_br
+ u_t001_002/c1_r0_rbl u_t001_002/c1_r1_rbl u_t001_002/c2_w0_bl u_t001_002/c2_w0_br u_t001_002/c2_w1_bl
+ u_t001_002/c2_w1_br u_t001_002/c2_r0_rbl u_t001_002/c2_r1_rbl u_t001_002/c3_w0_bl u_t001_002/c3_w0_br
+ u_t001_002/c3_w1_bl u_t001_002/c3_w1_br u_t001_002/c3_r0_rbl u_t001_002/c3_r1_rbl u_t001_002/r0_w0_wl
+ u_t001_002/r0_w1_wl u_t001_002/r0_r0_rwl u_t001_002/r0_r1_rwl u_t001_002/r1_w0_wl u_t001_002/r1_w1_wl
+ u_t001_002/r1_r0_rwl u_t001_002/r1_r1_rwl u_t001_002/r2_w0_wl u_t001_002/r2_w1_wl u_t001_002/r2_r0_rwl
+ u_t001_002/r2_r1_rwl u_t001_002/r3_w0_wl u_t001_002/r3_w1_wl u_t001_002/r3_r0_rwl u_t001_002/r3_r1_rwl VDD VSS VSUBS
+ gf180mcu_3v3_12t_2r2w_sram_4x4_tile
Xu_t029_027 u_t029_027/c0_w0_bl u_t029_027/c0_w0_br u_t029_027/c0_w1_bl u_t029_027/c0_w1_br u_t029_027/c0_r0_rbl
+ u_t029_027/c0_r1_rbl u_t029_027/c1_w0_bl u_t029_027/c1_w0_br u_t029_027/c1_w1_bl u_t029_027/c1_w1_br
+ u_t029_027/c1_r0_rbl u_t029_027/c1_r1_rbl u_t029_027/c2_w0_bl u_t029_027/c2_w0_br u_t029_027/c2_w1_bl
+ u_t029_027/c2_w1_br u_t029_027/c2_r0_rbl u_t029_027/c2_r1_rbl u_t029_027/c3_w0_bl u_t029_027/c3_w0_br
+ u_t029_027/c3_w1_bl u_t029_027/c3_w1_br u_t029_027/c3_r0_rbl u_t029_027/c3_r1_rbl u_t029_027/r0_w0_wl
+ u_t029_027/r0_w1_wl u_t029_027/r0_r0_rwl u_t029_027/r0_r1_rwl u_t029_027/r1_w0_wl u_t029_027/r1_w1_wl
+ u_t029_027/r1_r0_rwl u_t029_027/r1_r1_rwl u_t029_027/r2_w0_wl u_t029_027/r2_w1_wl u_t029_027/r2_r0_rwl
+ u_t029_027/r2_r1_rwl u_t029_027/r3_w0_wl u_t029_027/r3_w1_wl u_t029_027/r3_r0_rwl u_t029_027/r3_r1_rwl VDD VSS VSUBS
+ gf180mcu_3v3_12t_2r2w_sram_4x4_tile
Xu_t029_016 u_t029_016/c0_w0_bl u_t029_016/c0_w0_br u_t029_016/c0_w1_bl u_t029_016/c0_w1_br u_t029_016/c0_r0_rbl
+ u_t029_016/c0_r1_rbl u_t029_016/c1_w0_bl u_t029_016/c1_w0_br u_t029_016/c1_w1_bl u_t029_016/c1_w1_br
+ u_t029_016/c1_r0_rbl u_t029_016/c1_r1_rbl u_t029_016/c2_w0_bl u_t029_016/c2_w0_br u_t029_016/c2_w1_bl
+ u_t029_016/c2_w1_br u_t029_016/c2_r0_rbl u_t029_016/c2_r1_rbl u_t029_016/c3_w0_bl u_t029_016/c3_w0_br
+ u_t029_016/c3_w1_bl u_t029_016/c3_w1_br u_t029_016/c3_r0_rbl u_t029_016/c3_r1_rbl u_t029_016/r0_w0_wl
+ u_t029_016/r0_w1_wl u_t029_016/r0_r0_rwl u_t029_016/r0_r1_rwl u_t029_016/r1_w0_wl u_t029_016/r1_w1_wl
+ u_t029_016/r1_r0_rwl u_t029_016/r1_r1_rwl u_t029_016/r2_w0_wl u_t029_016/r2_w1_wl u_t029_016/r2_r0_rwl
+ u_t029_016/r2_r1_rwl u_t029_016/r3_w0_wl u_t029_016/r3_w1_wl u_t029_016/r3_r0_rwl u_t029_016/r3_r1_rwl VDD VSS VSUBS
+ gf180mcu_3v3_12t_2r2w_sram_4x4_tile
Xu_t029_005 u_t029_005/c0_w0_bl u_t029_005/c0_w0_br u_t029_005/c0_w1_bl u_t029_005/c0_w1_br u_t029_005/c0_r0_rbl
+ u_t029_005/c0_r1_rbl u_t029_005/c1_w0_bl u_t029_005/c1_w0_br u_t029_005/c1_w1_bl u_t029_005/c1_w1_br
+ u_t029_005/c1_r0_rbl u_t029_005/c1_r1_rbl u_t029_005/c2_w0_bl u_t029_005/c2_w0_br u_t029_005/c2_w1_bl
+ u_t029_005/c2_w1_br u_t029_005/c2_r0_rbl u_t029_005/c2_r1_rbl u_t029_005/c3_w0_bl u_t029_005/c3_w0_br
+ u_t029_005/c3_w1_bl u_t029_005/c3_w1_br u_t029_005/c3_r0_rbl u_t029_005/c3_r1_rbl u_t029_005/r0_w0_wl
+ u_t029_005/r0_w1_wl u_t029_005/r0_r0_rwl u_t029_005/r0_r1_rwl u_t029_005/r1_w0_wl u_t029_005/r1_w1_wl
+ u_t029_005/r1_r0_rwl u_t029_005/r1_r1_rwl u_t029_005/r2_w0_wl u_t029_005/r2_w1_wl u_t029_005/r2_r0_rwl
+ u_t029_005/r2_r1_rwl u_t029_005/r3_w0_wl u_t029_005/r3_w1_wl u_t029_005/r3_r0_rwl u_t029_005/r3_r1_rwl VDD VSS VSUBS
+ gf180mcu_3v3_12t_2r2w_sram_4x4_tile
Xu_t026_019 u_t026_019/c0_w0_bl u_t026_019/c0_w0_br u_t026_019/c0_w1_bl u_t026_019/c0_w1_br u_t026_019/c0_r0_rbl
+ u_t026_019/c0_r1_rbl u_t026_019/c1_w0_bl u_t026_019/c1_w0_br u_t026_019/c1_w1_bl u_t026_019/c1_w1_br
+ u_t026_019/c1_r0_rbl u_t026_019/c1_r1_rbl u_t026_019/c2_w0_bl u_t026_019/c2_w0_br u_t026_019/c2_w1_bl
+ u_t026_019/c2_w1_br u_t026_019/c2_r0_rbl u_t026_019/c2_r1_rbl u_t026_019/c3_w0_bl u_t026_019/c3_w0_br
+ u_t026_019/c3_w1_bl u_t026_019/c3_w1_br u_t026_019/c3_r0_rbl u_t026_019/c3_r1_rbl u_t026_019/r0_w0_wl
+ u_t026_019/r0_w1_wl u_t026_019/r0_r0_rwl u_t026_019/r0_r1_rwl u_t026_019/r1_w0_wl u_t026_019/r1_w1_wl
+ u_t026_019/r1_r0_rwl u_t026_019/r1_r1_rwl u_t026_019/r2_w0_wl u_t026_019/r2_w1_wl u_t026_019/r2_r0_rwl
+ u_t026_019/r2_r1_rwl u_t026_019/r3_w0_wl u_t026_019/r3_w1_wl u_t026_019/r3_r0_rwl u_t026_019/r3_r1_rwl VDD VSS VSUBS
+ gf180mcu_3v3_12t_2r2w_sram_4x4_tile
Xu_t026_008 u_t026_008/c0_w0_bl u_t026_008/c0_w0_br u_t026_008/c0_w1_bl u_t026_008/c0_w1_br u_t026_008/c0_r0_rbl
+ u_t026_008/c0_r1_rbl u_t026_008/c1_w0_bl u_t026_008/c1_w0_br u_t026_008/c1_w1_bl u_t026_008/c1_w1_br
+ u_t026_008/c1_r0_rbl u_t026_008/c1_r1_rbl u_t026_008/c2_w0_bl u_t026_008/c2_w0_br u_t026_008/c2_w1_bl
+ u_t026_008/c2_w1_br u_t026_008/c2_r0_rbl u_t026_008/c2_r1_rbl u_t026_008/c3_w0_bl u_t026_008/c3_w0_br
+ u_t026_008/c3_w1_bl u_t026_008/c3_w1_br u_t026_008/c3_r0_rbl u_t026_008/c3_r1_rbl u_t026_008/r0_w0_wl