* Independent macro-top blackbox reference for build/pin_lvs_pex_signoff/gf180mcu_3v3_12t_2r2w_sram_1024x8/pex/gf180mcu_3v3_12t_2r2w_sram_1024x8.current_pdk.spice

.subckt gf180mcu_3v3_12t_2r2w_sram_4x4_tile c0_w0_bl c0_w0_br c0_w1_bl c0_w1_br c0_r0_rbl c0_r1_rbl
+ c1_w0_bl c1_w0_br c1_w1_bl c1_w1_br c1_r0_rbl c1_r1_rbl c2_w0_bl c2_w0_br c2_w1_bl c2_w1_br c2_r0_rbl c2_r1_rbl
+ c3_w0_bl c3_w0_br c3_w1_bl c3_w1_br c3_r0_rbl c3_r1_rbl r0_w0_wl r0_w1_wl r0_r0_rwl r0_r1_rwl r1_w0_wl r1_w1_wl
+ r1_r0_rwl r1_r1_rwl r2_w0_wl r2_w1_wl r2_r0_rwl r2_r1_rwl r3_w0_wl r3_w1_wl r3_r0_rwl r3_r1_rwl VDD VSS VSUBS
.ends gf180mcu_3v3_12t_2r2w_sram_4x4_tile

.subckt gf180mcu_3v3_12t_2r2w_sram_1024x8 clk w0_en w1_en r0_en r1_en w0_addr[0] w0_addr[1] w0_addr[2]
+ w0_addr[3] w0_addr[4] w0_addr[5] w0_addr[6] w0_addr[7] w0_addr[8] w0_addr[9] w1_addr[0] w1_addr[1] w1_addr[2]
+ w1_addr[3] w1_addr[4] w1_addr[5] w1_addr[6] w1_addr[7] w1_addr[8] w1_addr[9] r0_addr[0] r0_addr[1] r0_addr[2]
+ r0_addr[3] r0_addr[4] r0_addr[5] r0_addr[6] r0_addr[7] r0_addr[8] r0_addr[9] r1_addr[0] r1_addr[1] r1_addr[2]
+ r1_addr[3] r1_addr[4] r1_addr[5] r1_addr[6] r1_addr[7] r1_addr[8] r1_addr[9] w0_data[0] w0_data[1] w0_data[2]
+ w0_data[3] w0_data[4] w0_data[5] w0_data[6] w0_data[7] w1_data[0] w1_data[1] w1_data[2] w1_data[3] w1_data[4]
+ w1_data[5] w1_data[6] w1_data[7] r0_data[0] r0_data[1] r0_data[2] r0_data[3] r0_data[4] r0_data[5] r0_data[6]
+ r0_data[7] r1_data[0] r1_data[1] r1_data[2] r1_data[3] r1_data[4] r1_data[5] r1_data[6] r1_data[7] VDD VSS
Xu_t029_015 u_t029_015/c0_w0_bl u_t029_015/c0_w0_br u_t029_015/c0_w1_bl u_t029_015/c0_w1_br u_t029_015/c0_r0_rbl
+ u_t029_015/c0_r1_rbl u_t029_015/c1_w0_bl u_t029_015/c1_w0_br u_t029_015/c1_w1_bl u_t029_015/c1_w1_br
+ u_t029_015/c1_r0_rbl u_t029_015/c1_r1_rbl u_t029_015/c2_w0_bl u_t029_015/c2_w0_br u_t029_015/c2_w1_bl
+ u_t029_015/c2_w1_br u_t029_015/c2_r0_rbl u_t029_015/c2_r1_rbl u_t029_015/c3_w0_bl u_t029_015/c3_w0_br
+ u_t029_015/c3_w1_bl u_t029_015/c3_w1_br u_t029_015/c3_r0_rbl u_t029_015/c3_r1_rbl u_t029_015/r0_w0_wl
+ u_t029_015/r0_w1_wl u_t029_015/r0_r0_rwl u_t029_015/r0_r1_rwl u_t029_015/r1_w0_wl u_t029_015/r1_w1_wl
+ u_t029_015/r1_r0_rwl u_t029_015/r1_r1_rwl u_t029_015/r2_w0_wl u_t029_015/r2_w1_wl u_t029_015/r2_r0_rwl
+ u_t029_015/r2_r1_rwl u_t029_015/r3_w0_wl u_t029_015/r3_w1_wl u_t029_015/r3_r0_rwl u_t029_015/r3_r1_rwl VDD VSS VSUBS
+ gf180mcu_3v3_12t_2r2w_sram_4x4_tile
Xu_t029_004 u_t029_004/c0_w0_bl u_t029_004/c0_w0_br u_t029_004/c0_w1_bl u_t029_004/c0_w1_br u_t029_004/c0_r0_rbl
+ u_t029_004/c0_r1_rbl u_t029_004/c1_w0_bl u_t029_004/c1_w0_br u_t029_004/c1_w1_bl u_t029_004/c1_w1_br
+ u_t029_004/c1_r0_rbl u_t029_004/c1_r1_rbl u_t029_004/c2_w0_bl u_t029_004/c2_w0_br u_t029_004/c2_w1_bl
+ u_t029_004/c2_w1_br u_t029_004/c2_r0_rbl u_t029_004/c2_r1_rbl u_t029_004/c3_w0_bl u_t029_004/c3_w0_br
+ u_t029_004/c3_w1_bl u_t029_004/c3_w1_br u_t029_004/c3_r0_rbl u_t029_004/c3_r1_rbl u_t029_004/r0_w0_wl
+ u_t029_004/r0_w1_wl u_t029_004/r0_r0_rwl u_t029_004/r0_r1_rwl u_t029_004/r1_w0_wl u_t029_004/r1_w1_wl
+ u_t029_004/r1_r0_rwl u_t029_004/r1_r1_rwl u_t029_004/r2_w0_wl u_t029_004/r2_w1_wl u_t029_004/r2_r0_rwl
+ u_t029_004/r2_r1_rwl u_t029_004/r3_w0_wl u_t029_004/r3_w1_wl u_t029_004/r3_r0_rwl u_t029_004/r3_r1_rwl VDD VSS VSUBS
+ gf180mcu_3v3_12t_2r2w_sram_4x4_tile
Xu_t026_007 u_t026_007/c0_w0_bl u_t026_007/c0_w0_br u_t026_007/c0_w1_bl u_t026_007/c0_w1_br u_t026_007/c0_r0_rbl
+ u_t026_007/c0_r1_rbl u_t026_007/c1_w0_bl u_t026_007/c1_w0_br u_t026_007/c1_w1_bl u_t026_007/c1_w1_br
+ u_t026_007/c1_r0_rbl u_t026_007/c1_r1_rbl u_t026_007/c2_w0_bl u_t026_007/c2_w0_br u_t026_007/c2_w1_bl
+ u_t026_007/c2_w1_br u_t026_007/c2_r0_rbl u_t026_007/c2_r1_rbl u_t026_007/c3_w0_bl u_t026_007/c3_w0_br
+ u_t026_007/c3_w1_bl u_t026_007/c3_w1_br u_t026_007/c3_r0_rbl u_t026_007/c3_r1_rbl u_t026_007/r0_w0_wl
+ u_t026_007/r0_w1_wl u_t026_007/r0_r0_rwl u_t026_007/r0_r1_rwl u_t026_007/r1_w0_wl u_t026_007/r1_w1_wl
+ u_t026_007/r1_r0_rwl u_t026_007/r1_r1_rwl u_t026_007/r2_w0_wl u_t026_007/r2_w1_wl u_t026_007/r2_r0_rwl
+ u_t026_007/r2_r1_rwl u_t026_007/r3_w0_wl u_t026_007/r3_w1_wl u_t026_007/r3_r0_rwl u_t026_007/r3_r1_rwl VDD VSS VSUBS
+ gf180mcu_3v3_12t_2r2w_sram_4x4_tile
Xu_t017_007 u_t017_007/c0_w0_bl u_t017_007/c0_w0_br u_t017_007/c0_w1_bl u_t017_007/c0_w1_br u_t017_007/c0_r0_rbl
+ u_t017_007/c0_r1_rbl u_t017_007/c1_w0_bl u_t017_007/c1_w0_br u_t017_007/c1_w1_bl u_t017_007/c1_w1_br
+ u_t017_007/c1_r0_rbl u_t017_007/c1_r1_rbl u_t017_007/c2_w0_bl u_t017_007/c2_w0_br u_t017_007/c2_w1_bl
+ u_t017_007/c2_w1_br u_t017_007/c2_r0_rbl u_t017_007/c2_r1_rbl u_t017_007/c3_w0_bl u_t017_007/c3_w0_br
+ u_t017_007/c3_w1_bl u_t017_007/c3_w1_br u_t017_007/c3_r0_rbl u_t017_007/c3_r1_rbl u_t017_007/r0_w0_wl
+ u_t017_007/r0_w1_wl u_t017_007/r0_r0_rwl u_t017_007/r0_r1_rwl u_t017_007/r1_w0_wl u_t017_007/r1_w1_wl
+ u_t017_007/r1_r0_rwl u_t017_007/r1_r1_rwl u_t017_007/r2_w0_wl u_t017_007/r2_w1_wl u_t017_007/r2_r0_rwl
+ u_t017_007/r2_r1_rwl u_t017_007/r3_w0_wl u_t017_007/r3_w1_wl u_t017_007/r3_r0_rwl u_t017_007/r3_r1_rwl VDD VSS VSUBS
+ gf180mcu_3v3_12t_2r2w_sram_4x4_tile
Xu_t031_010 u_t031_010/c0_w0_bl u_t031_010/c0_w0_br u_t031_010/c0_w1_bl u_t031_010/c0_w1_br u_t031_010/c0_r0_rbl
+ u_t031_010/c0_r1_rbl u_t031_010/c1_w0_bl u_t031_010/c1_w0_br u_t031_010/c1_w1_bl u_t031_010/c1_w1_br
+ u_t031_010/c1_r0_rbl u_t031_010/c1_r1_rbl u_t031_010/c2_w0_bl u_t031_010/c2_w0_br u_t031_010/c2_w1_bl
+ u_t031_010/c2_w1_br u_t031_010/c2_r0_rbl u_t031_010/c2_r1_rbl u_t031_010/c3_w0_bl u_t031_010/c3_w0_br
+ u_t031_010/c3_w1_bl u_t031_010/c3_w1_br u_t031_010/c3_r0_rbl u_t031_010/c3_r1_rbl u_t031_010/r0_w0_wl
+ u_t031_010/r0_w1_wl u_t031_010/r0_r0_rwl u_t031_010/r0_r1_rwl u_t031_010/r1_w0_wl u_t031_010/r1_w1_wl
+ u_t031_010/r1_r0_rwl u_t031_010/r1_r1_rwl u_t031_010/r2_w0_wl u_t031_010/r2_w1_wl u_t031_010/r2_r0_rwl
+ u_t031_010/r2_r1_rwl u_t031_010/r3_w0_wl u_t031_010/r3_w1_wl u_t031_010/r3_r0_rwl u_t031_010/r3_r1_rwl VDD VSS VSUBS
+ gf180mcu_3v3_12t_2r2w_sram_4x4_tile
Xu_t008_007 u_t008_007/c0_w0_bl u_t008_007/c0_w0_br u_t008_007/c0_w1_bl u_t008_007/c0_w1_br u_t008_007/c0_r0_rbl
+ u_t008_007/c0_r1_rbl u_t008_007/c1_w0_bl u_t008_007/c1_w0_br u_t008_007/c1_w1_bl u_t008_007/c1_w1_br
+ u_t008_007/c1_r0_rbl u_t008_007/c1_r1_rbl u_t008_007/c2_w0_bl u_t008_007/c2_w0_br u_t008_007/c2_w1_bl
+ u_t008_007/c2_w1_br u_t008_007/c2_r0_rbl u_t008_007/c2_r1_rbl u_t008_007/c3_w0_bl u_t008_007/c3_w0_br
+ u_t008_007/c3_w1_bl u_t008_007/c3_w1_br u_t008_007/c3_r0_rbl u_t008_007/c3_r1_rbl u_t008_007/r0_w0_wl
+ u_t008_007/r0_w1_wl u_t008_007/r0_r0_rwl u_t008_007/r0_r1_rwl u_t008_007/r1_w0_wl u_t008_007/r1_w1_wl
+ u_t008_007/r1_r0_rwl u_t008_007/r1_r1_rwl u_t008_007/r2_w0_wl u_t008_007/r2_w1_wl u_t008_007/r2_r0_rwl
+ u_t008_007/r2_r1_rwl u_t008_007/r3_w0_wl u_t008_007/r3_w1_wl u_t008_007/r3_r0_rwl u_t008_007/r3_r1_rwl VDD VSS VSUBS
+ gf180mcu_3v3_12t_2r2w_sram_4x4_tile
Xu_t022_010 u_t022_010/c0_w0_bl u_t022_010/c0_w0_br u_t022_010/c0_w1_bl u_t022_010/c0_w1_br u_t022_010/c0_r0_rbl
+ u_t022_010/c0_r1_rbl u_t022_010/c1_w0_bl u_t022_010/c1_w0_br u_t022_010/c1_w1_bl u_t022_010/c1_w1_br
+ u_t022_010/c1_r0_rbl u_t022_010/c1_r1_rbl u_t022_010/c2_w0_bl u_t022_010/c2_w0_br u_t022_010/c2_w1_bl
+ u_t022_010/c2_w1_br u_t022_010/c2_r0_rbl u_t022_010/c2_r1_rbl u_t022_010/c3_w0_bl u_t022_010/c3_w0_br
+ u_t022_010/c3_w1_bl u_t022_010/c3_w1_br u_t022_010/c3_r0_rbl u_t022_010/c3_r1_rbl u_t022_010/r0_w0_wl
+ u_t022_010/r0_w1_wl u_t022_010/r0_r0_rwl u_t022_010/r0_r1_rwl u_t022_010/r1_w0_wl u_t022_010/r1_w1_wl
+ u_t022_010/r1_r0_rwl u_t022_010/r1_r1_rwl u_t022_010/r2_w0_wl u_t022_010/r2_w1_wl u_t022_010/r2_r0_rwl
+ u_t022_010/r2_r1_rwl u_t022_010/r3_w0_wl u_t022_010/r3_w1_wl u_t022_010/r3_r0_rwl u_t022_010/r3_r1_rwl VDD VSS VSUBS
+ gf180mcu_3v3_12t_2r2w_sram_4x4_tile
Xu_t013_010 u_t013_010/c0_w0_bl u_t013_010/c0_w0_br u_t013_010/c0_w1_bl u_t013_010/c0_w1_br u_t013_010/c0_r0_rbl
+ u_t013_010/c0_r1_rbl u_t013_010/c1_w0_bl u_t013_010/c1_w0_br u_t013_010/c1_w1_bl u_t013_010/c1_w1_br
+ u_t013_010/c1_r0_rbl u_t013_010/c1_r1_rbl u_t013_010/c2_w0_bl u_t013_010/c2_w0_br u_t013_010/c2_w1_bl
+ u_t013_010/c2_w1_br u_t013_010/c2_r0_rbl u_t013_010/c2_r1_rbl u_t013_010/c3_w0_bl u_t013_010/c3_w0_br
+ u_t013_010/c3_w1_bl u_t013_010/c3_w1_br u_t013_010/c3_r0_rbl u_t013_010/c3_r1_rbl u_t013_010/r0_w0_wl
+ u_t013_010/r0_w1_wl u_t013_010/r0_r0_rwl u_t013_010/r0_r1_rwl u_t013_010/r1_w0_wl u_t013_010/r1_w1_wl
+ u_t013_010/r1_r0_rwl u_t013_010/r1_r1_rwl u_t013_010/r2_w0_wl u_t013_010/r2_w1_wl u_t013_010/r2_r0_rwl
+ u_t013_010/r2_r1_rwl u_t013_010/r3_w0_wl u_t013_010/r3_w1_wl u_t013_010/r3_r0_rwl u_t013_010/r3_r1_rwl VDD VSS VSUBS
+ gf180mcu_3v3_12t_2r2w_sram_4x4_tile
Xu_t004_010 u_t004_010/c0_w0_bl u_t004_010/c0_w0_br u_t004_010/c0_w1_bl u_t004_010/c0_w1_br u_t004_010/c0_r0_rbl
+ u_t004_010/c0_r1_rbl u_t004_010/c1_w0_bl u_t004_010/c1_w0_br u_t004_010/c1_w1_bl u_t004_010/c1_w1_br
+ u_t004_010/c1_r0_rbl u_t004_010/c1_r1_rbl u_t004_010/c2_w0_bl u_t004_010/c2_w0_br u_t004_010/c2_w1_bl
+ u_t004_010/c2_w1_br u_t004_010/c2_r0_rbl u_t004_010/c2_r1_rbl u_t004_010/c3_w0_bl u_t004_010/c3_w0_br
+ u_t004_010/c3_w1_bl u_t004_010/c3_w1_br u_t004_010/c3_r0_rbl u_t004_010/c3_r1_rbl u_t004_010/r0_w0_wl
+ u_t004_010/r0_w1_wl u_t004_010/r0_r0_rwl u_t004_010/r0_r1_rwl u_t004_010/r1_w0_wl u_t004_010/r1_w1_wl
+ u_t004_010/r1_r0_rwl u_t004_010/r1_r1_rwl u_t004_010/r2_w0_wl u_t004_010/r2_w1_wl u_t004_010/r2_r0_rwl
+ u_t004_010/r2_r1_rwl u_t004_010/r3_w0_wl u_t004_010/r3_w1_wl u_t004_010/r3_r0_rwl u_t004_010/r3_r1_rwl VDD VSS VSUBS
+ gf180mcu_3v3_12t_2r2w_sram_4x4_tile
Xu_t010_002 u_t010_002/c0_w0_bl u_t010_002/c0_w0_br u_t010_002/c0_w1_bl u_t010_002/c0_w1_br u_t010_002/c0_r0_rbl
+ u_t010_002/c0_r1_rbl u_t010_002/c1_w0_bl u_t010_002/c1_w0_br u_t010_002/c1_w1_bl u_t010_002/c1_w1_br
+ u_t010_002/c1_r0_rbl u_t010_002/c1_r1_rbl u_t010_002/c2_w0_bl u_t010_002/c2_w0_br u_t010_002/c2_w1_bl
+ u_t010_002/c2_w1_br u_t010_002/c2_r0_rbl u_t010_002/c2_r1_rbl u_t010_002/c3_w0_bl u_t010_002/c3_w0_br
+ u_t010_002/c3_w1_bl u_t010_002/c3_w1_br u_t010_002/c3_r0_rbl u_t010_002/c3_r1_rbl u_t010_002/r0_w0_wl
+ u_t010_002/r0_w1_wl u_t010_002/r0_r0_rwl u_t010_002/r0_r1_rwl u_t010_002/r1_w0_wl u_t010_002/r1_w1_wl
+ u_t010_002/r1_r0_rwl u_t010_002/r1_r1_rwl u_t010_002/r2_w0_wl u_t010_002/r2_w1_wl u_t010_002/r2_r0_rwl
+ u_t010_002/r2_r1_rwl u_t010_002/r3_w0_wl u_t010_002/r3_w1_wl u_t010_002/r3_r0_rwl u_t010_002/r3_r1_rwl VDD VSS VSUBS
+ gf180mcu_3v3_12t_2r2w_sram_4x4_tile
Xu_t010_013 u_t010_013/c0_w0_bl u_t010_013/c0_w0_br u_t010_013/c0_w1_bl u_t010_013/c0_w1_br u_t010_013/c0_r0_rbl
+ u_t010_013/c0_r1_rbl u_t010_013/c1_w0_bl u_t010_013/c1_w0_br u_t010_013/c1_w1_bl u_t010_013/c1_w1_br
+ u_t010_013/c1_r0_rbl u_t010_013/c1_r1_rbl u_t010_013/c2_w0_bl u_t010_013/c2_w0_br u_t010_013/c2_w1_bl
+ u_t010_013/c2_w1_br u_t010_013/c2_r0_rbl u_t010_013/c2_r1_rbl u_t010_013/c3_w0_bl u_t010_013/c3_w0_br
+ u_t010_013/c3_w1_bl u_t010_013/c3_w1_br u_t010_013/c3_r0_rbl u_t010_013/c3_r1_rbl u_t010_013/r0_w0_wl
+ u_t010_013/r0_w1_wl u_t010_013/r0_r0_rwl u_t010_013/r0_r1_rwl u_t010_013/r1_w0_wl u_t010_013/r1_w1_wl
+ u_t010_013/r1_r0_rwl u_t010_013/r1_r1_rwl u_t010_013/r2_w0_wl u_t010_013/r2_w1_wl u_t010_013/r2_r0_rwl
+ u_t010_013/r2_r1_rwl u_t010_013/r3_w0_wl u_t010_013/r3_w1_wl u_t010_013/r3_r0_rwl u_t010_013/r3_r1_rwl VDD VSS VSUBS
+ gf180mcu_3v3_12t_2r2w_sram_4x4_tile
Xu_t001_013 u_t001_013/c0_w0_bl u_t001_013/c0_w0_br u_t001_013/c0_w1_bl u_t001_013/c0_w1_br u_t001_013/c0_r0_rbl
+ u_t001_013/c0_r1_rbl u_t001_013/c1_w0_bl u_t001_013/c1_w0_br u_t001_013/c1_w1_bl u_t001_013/c1_w1_br
+ u_t001_013/c1_r0_rbl u_t001_013/c1_r1_rbl u_t001_013/c2_w0_bl u_t001_013/c2_w0_br u_t001_013/c2_w1_bl
+ u_t001_013/c2_w1_br u_t001_013/c2_r0_rbl u_t001_013/c2_r1_rbl u_t001_013/c3_w0_bl u_t001_013/c3_w0_br
+ u_t001_013/c3_w1_bl u_t001_013/c3_w1_br u_t001_013/c3_r0_rbl u_t001_013/c3_r1_rbl u_t001_013/r0_w0_wl
+ u_t001_013/r0_w1_wl u_t001_013/r0_r0_rwl u_t001_013/r0_r1_rwl u_t001_013/r1_w0_wl u_t001_013/r1_w1_wl
+ u_t001_013/r1_r0_rwl u_t001_013/r1_r1_rwl u_t001_013/r2_w0_wl u_t001_013/r2_w1_wl u_t001_013/r2_r0_rwl
+ u_t001_013/r2_r1_rwl u_t001_013/r3_w0_wl u_t001_013/r3_w1_wl u_t001_013/r3_r0_rwl u_t001_013/r3_r1_rwl VDD VSS VSUBS
+ gf180mcu_3v3_12t_2r2w_sram_4x4_tile
Xu_t001_002 u_t001_002/c0_w0_bl u_t001_002/c0_w0_br u_t001_002/c0_w1_bl u_t001_002/c0_w1_br u_t001_002/c0_r0_rbl
+ u_t001_002/c0_r1_rbl u_t001_002/c1_w0_bl u_t001_002/c1_w0_br u_t001_002/c1_w1_bl u_t001_002/c1_w1_br
+ u_t001_002/c1_r0_rbl u_t001_002/c1_r1_rbl u_t001_002/c2_w0_bl u_t001_002/c2_w0_br u_t001_002/c2_w1_bl
+ u_t001_002/c2_w1_br u_t001_002/c2_r0_rbl u_t001_002/c2_r1_rbl u_t001_002/c3_w0_bl u_t001_002/c3_w0_br
+ u_t001_002/c3_w1_bl u_t001_002/c3_w1_br u_t001_002/c3_r0_rbl u_t001_002/c3_r1_rbl u_t001_002/r0_w0_wl
+ u_t001_002/r0_w1_wl u_t001_002/r0_r0_rwl u_t001_002/r0_r1_rwl u_t001_002/r1_w0_wl u_t001_002/r1_w1_wl
+ u_t001_002/r1_r0_rwl u_t001_002/r1_r1_rwl u_t001_002/r2_w0_wl u_t001_002/r2_w1_wl u_t001_002/r2_r0_rwl
+ u_t001_002/r2_r1_rwl u_t001_002/r3_w0_wl u_t001_002/r3_w1_wl u_t001_002/r3_r0_rwl u_t001_002/r3_r1_rwl VDD VSS VSUBS
+ gf180mcu_3v3_12t_2r2w_sram_4x4_tile
Xu_t029_005 u_t029_005/c0_w0_bl u_t029_005/c0_w0_br u_t029_005/c0_w1_bl u_t029_005/c0_w1_br u_t029_005/c0_r0_rbl
+ u_t029_005/c0_r1_rbl u_t029_005/c1_w0_bl u_t029_005/c1_w0_br u_t029_005/c1_w1_bl u_t029_005/c1_w1_br
+ u_t029_005/c1_r0_rbl u_t029_005/c1_r1_rbl u_t029_005/c2_w0_bl u_t029_005/c2_w0_br u_t029_005/c2_w1_bl
+ u_t029_005/c2_w1_br u_t029_005/c2_r0_rbl u_t029_005/c2_r1_rbl u_t029_005/c3_w0_bl u_t029_005/c3_w0_br
+ u_t029_005/c3_w1_bl u_t029_005/c3_w1_br u_t029_005/c3_r0_rbl u_t029_005/c3_r1_rbl u_t029_005/r0_w0_wl
+ u_t029_005/r0_w1_wl u_t029_005/r0_r0_rwl u_t029_005/r0_r1_rwl u_t029_005/r1_w0_wl u_t029_005/r1_w1_wl
+ u_t029_005/r1_r0_rwl u_t029_005/r1_r1_rwl u_t029_005/r2_w0_wl u_t029_005/r2_w1_wl u_t029_005/r2_r0_rwl
+ u_t029_005/r2_r1_rwl u_t029_005/r3_w0_wl u_t029_005/r3_w1_wl u_t029_005/r3_r0_rwl u_t029_005/r3_r1_rwl VDD VSS VSUBS
+ gf180mcu_3v3_12t_2r2w_sram_4x4_tile
Xu_t026_008 u_t026_008/c0_w0_bl u_t026_008/c0_w0_br u_t026_008/c0_w1_bl u_t026_008/c0_w1_br u_t026_008/c0_r0_rbl
+ u_t026_008/c0_r1_rbl u_t026_008/c1_w0_bl u_t026_008/c1_w0_br u_t026_008/c1_w1_bl u_t026_008/c1_w1_br
+ u_t026_008/c1_r0_rbl u_t026_008/c1_r1_rbl u_t026_008/c2_w0_bl u_t026_008/c2_w0_br u_t026_008/c2_w1_bl
+ u_t026_008/c2_w1_br u_t026_008/c2_r0_rbl u_t026_008/c2_r1_rbl u_t026_008/c3_w0_bl u_t026_008/c3_w0_br
+ u_t026_008/c3_w1_bl u_t026_008/c3_w1_br u_t026_008/c3_r0_rbl u_t026_008/c3_r1_rbl u_t026_008/r0_w0_wl
+ u_t026_008/r0_w1_wl u_t026_008/r0_r0_rwl u_t026_008/r0_r1_rwl u_t026_008/r1_w0_wl u_t026_008/r1_w1_wl
+ u_t026_008/r1_r0_rwl u_t026_008/r1_r1_rwl u_t026_008/r2_w0_wl u_t026_008/r2_w1_wl u_t026_008/r2_r0_rwl
+ u_t026_008/r2_r1_rwl u_t026_008/r3_w0_wl u_t026_008/r3_w1_wl u_t026_008/r3_r0_rwl u_t026_008/r3_r1_rwl VDD VSS VSUBS
+ gf180mcu_3v3_12t_2r2w_sram_4x4_tile
Xu_t008_008 u_t008_008/c0_w0_bl u_t008_008/c0_w0_br u_t008_008/c0_w1_bl u_t008_008/c0_w1_br u_t008_008/c0_r0_rbl
+ u_t008_008/c0_r1_rbl u_t008_008/c1_w0_bl u_t008_008/c1_w0_br u_t008_008/c1_w1_bl u_t008_008/c1_w1_br
+ u_t008_008/c1_r0_rbl u_t008_008/c1_r1_rbl u_t008_008/c2_w0_bl u_t008_008/c2_w0_br u_t008_008/c2_w1_bl
+ u_t008_008/c2_w1_br u_t008_008/c2_r0_rbl u_t008_008/c2_r1_rbl u_t008_008/c3_w0_bl u_t008_008/c3_w0_br
+ u_t008_008/c3_w1_bl u_t008_008/c3_w1_br u_t008_008/c3_r0_rbl u_t008_008/c3_r1_rbl u_t008_008/r0_w0_wl
+ u_t008_008/r0_w1_wl u_t008_008/r0_r0_rwl u_t008_008/r0_r1_rwl u_t008_008/r1_w0_wl u_t008_008/r1_w1_wl
+ u_t008_008/r1_r0_rwl u_t008_008/r1_r1_rwl u_t008_008/r2_w0_wl u_t008_008/r2_w1_wl u_t008_008/r2_r0_rwl
+ u_t008_008/r2_r1_rwl u_t008_008/r3_w0_wl u_t008_008/r3_w1_wl u_t008_008/r3_r0_rwl u_t008_008/r3_r1_rwl VDD VSS VSUBS
+ gf180mcu_3v3_12t_2r2w_sram_4x4_tile
Xu_t017_008 u_t017_008/c0_w0_bl u_t017_008/c0_w0_br u_t017_008/c0_w1_bl u_t017_008/c0_w1_br u_t017_008/c0_r0_rbl
+ u_t017_008/c0_r1_rbl u_t017_008/c1_w0_bl u_t017_008/c1_w0_br u_t017_008/c1_w1_bl u_t017_008/c1_w1_br
+ u_t017_008/c1_r0_rbl u_t017_008/c1_r1_rbl u_t017_008/c2_w0_bl u_t017_008/c2_w0_br u_t017_008/c2_w1_bl
+ u_t017_008/c2_w1_br u_t017_008/c2_r0_rbl u_t017_008/c2_r1_rbl u_t017_008/c3_w0_bl u_t017_008/c3_w0_br
+ u_t017_008/c3_w1_bl u_t017_008/c3_w1_br u_t017_008/c3_r0_rbl u_t017_008/c3_r1_rbl u_t017_008/r0_w0_wl
+ u_t017_008/r0_w1_wl u_t017_008/r0_r0_rwl u_t017_008/r0_r1_rwl u_t017_008/r1_w0_wl u_t017_008/r1_w1_wl
+ u_t017_008/r1_r0_rwl u_t017_008/r1_r1_rwl u_t017_008/r2_w0_wl u_t017_008/r2_w1_wl u_t017_008/r2_r0_rwl
+ u_t017_008/r2_r1_rwl u_t017_008/r3_w0_wl u_t017_008/r3_w1_wl u_t017_008/r3_r0_rwl u_t017_008/r3_r1_rwl VDD VSS VSUBS
+ gf180mcu_3v3_12t_2r2w_sram_4x4_tile
Xu_t031_011 u_t031_011/c0_w0_bl u_t031_011/c0_w0_br u_t031_011/c0_w1_bl u_t031_011/c0_w1_br u_t031_011/c0_r0_rbl
+ u_t031_011/c0_r1_rbl u_t031_011/c1_w0_bl u_t031_011/c1_w0_br u_t031_011/c1_w1_bl u_t031_011/c1_w1_br
+ u_t031_011/c1_r0_rbl u_t031_011/c1_r1_rbl u_t031_011/c2_w0_bl u_t031_011/c2_w0_br u_t031_011/c2_w1_bl
+ u_t031_011/c2_w1_br u_t031_011/c2_r0_rbl u_t031_011/c2_r1_rbl u_t031_011/c3_w0_bl u_t031_011/c3_w0_br
+ u_t031_011/c3_w1_bl u_t031_011/c3_w1_br u_t031_011/c3_r0_rbl u_t031_011/c3_r1_rbl u_t031_011/r0_w0_wl
+ u_t031_011/r0_w1_wl u_t031_011/r0_r0_rwl u_t031_011/r0_r1_rwl u_t031_011/r1_w0_wl u_t031_011/r1_w1_wl
+ u_t031_011/r1_r0_rwl u_t031_011/r1_r1_rwl u_t031_011/r2_w0_wl u_t031_011/r2_w1_wl u_t031_011/r2_r0_rwl
+ u_t031_011/r2_r1_rwl u_t031_011/r3_w0_wl u_t031_011/r3_w1_wl u_t031_011/r3_r0_rwl u_t031_011/r3_r1_rwl VDD VSS VSUBS
+ gf180mcu_3v3_12t_2r2w_sram_4x4_tile
Xu_t031_000 u_t031_000/c0_w0_bl u_t031_000/c0_w0_br u_t031_000/c0_w1_bl u_t031_000/c0_w1_br u_t031_000/c0_r0_rbl
+ u_t031_000/c0_r1_rbl u_t031_000/c1_w0_bl u_t031_000/c1_w0_br u_t031_000/c1_w1_bl u_t031_000/c1_w1_br
+ u_t031_000/c1_r0_rbl u_t031_000/c1_r1_rbl u_t031_000/c2_w0_bl u_t031_000/c2_w0_br u_t031_000/c2_w1_bl
+ u_t031_000/c2_w1_br u_t031_000/c2_r0_rbl u_t031_000/c2_r1_rbl u_t031_000/c3_w0_bl u_t031_000/c3_w0_br
+ u_t031_000/c3_w1_bl u_t031_000/c3_w1_br u_t031_000/c3_r0_rbl u_t031_000/c3_r1_rbl u_t031_000/r0_w0_wl
+ u_t031_000/r0_w1_wl u_t031_000/r0_r0_rwl u_t031_000/r0_r1_rwl u_t031_000/r1_w0_wl u_t031_000/r1_w1_wl
+ u_t031_000/r1_r0_rwl u_t031_000/r1_r1_rwl u_t031_000/r2_w0_wl u_t031_000/r2_w1_wl u_t031_000/r2_r0_rwl
+ u_t031_000/r2_r1_rwl u_t031_000/r3_w0_wl u_t031_000/r3_w1_wl u_t031_000/r3_r0_rwl u_t031_000/r3_r1_rwl VDD VSS VSUBS
+ gf180mcu_3v3_12t_2r2w_sram_4x4_tile
Xu_t013_000 u_t013_000/c0_w0_bl u_t013_000/c0_w0_br u_t013_000/c0_w1_bl u_t013_000/c0_w1_br u_t013_000/c0_r0_rbl
+ u_t013_000/c0_r1_rbl u_t013_000/c1_w0_bl u_t013_000/c1_w0_br u_t013_000/c1_w1_bl u_t013_000/c1_w1_br
+ u_t013_000/c1_r0_rbl u_t013_000/c1_r1_rbl u_t013_000/c2_w0_bl u_t013_000/c2_w0_br u_t013_000/c2_w1_bl
+ u_t013_000/c2_w1_br u_t013_000/c2_r0_rbl u_t013_000/c2_r1_rbl u_t013_000/c3_w0_bl u_t013_000/c3_w0_br
+ u_t013_000/c3_w1_bl u_t013_000/c3_w1_br u_t013_000/c3_r0_rbl u_t013_000/c3_r1_rbl u_t013_000/r0_w0_wl
+ u_t013_000/r0_w1_wl u_t013_000/r0_r0_rwl u_t013_000/r0_r1_rwl u_t013_000/r1_w0_wl u_t013_000/r1_w1_wl
+ u_t013_000/r1_r0_rwl u_t013_000/r1_r1_rwl u_t013_000/r2_w0_wl u_t013_000/r2_w1_wl u_t013_000/r2_r0_rwl
+ u_t013_000/r2_r1_rwl u_t013_000/r3_w0_wl u_t013_000/r3_w1_wl u_t013_000/r3_r0_rwl u_t013_000/r3_r1_rwl VDD VSS VSUBS
+ gf180mcu_3v3_12t_2r2w_sram_4x4_tile
Xu_t013_011 u_t013_011/c0_w0_bl u_t013_011/c0_w0_br u_t013_011/c0_w1_bl u_t013_011/c0_w1_br u_t013_011/c0_r0_rbl
+ u_t013_011/c0_r1_rbl u_t013_011/c1_w0_bl u_t013_011/c1_w0_br u_t013_011/c1_w1_bl u_t013_011/c1_w1_br
+ u_t013_011/c1_r0_rbl u_t013_011/c1_r1_rbl u_t013_011/c2_w0_bl u_t013_011/c2_w0_br u_t013_011/c2_w1_bl
+ u_t013_011/c2_w1_br u_t013_011/c2_r0_rbl u_t013_011/c2_r1_rbl u_t013_011/c3_w0_bl u_t013_011/c3_w0_br
+ u_t013_011/c3_w1_bl u_t013_011/c3_w1_br u_t013_011/c3_r0_rbl u_t013_011/c3_r1_rbl u_t013_011/r0_w0_wl
+ u_t013_011/r0_w1_wl u_t013_011/r0_r0_rwl u_t013_011/r0_r1_rwl u_t013_011/r1_w0_wl u_t013_011/r1_w1_wl
+ u_t013_011/r1_r0_rwl u_t013_011/r1_r1_rwl u_t013_011/r2_w0_wl u_t013_011/r2_w1_wl u_t013_011/r2_r0_rwl
+ u_t013_011/r2_r1_rwl u_t013_011/r3_w0_wl u_t013_011/r3_w1_wl u_t013_011/r3_r0_rwl u_t013_011/r3_r1_rwl VDD VSS VSUBS
+ gf180mcu_3v3_12t_2r2w_sram_4x4_tile
Xu_t022_000 u_t022_000/c0_w0_bl u_t022_000/c0_w0_br u_t022_000/c0_w1_bl u_t022_000/c0_w1_br u_t022_000/c0_r0_rbl
+ u_t022_000/c0_r1_rbl u_t022_000/c1_w0_bl u_t022_000/c1_w0_br u_t022_000/c1_w1_bl u_t022_000/c1_w1_br
+ u_t022_000/c1_r0_rbl u_t022_000/c1_r1_rbl u_t022_000/c2_w0_bl u_t022_000/c2_w0_br u_t022_000/c2_w1_bl
+ u_t022_000/c2_w1_br u_t022_000/c2_r0_rbl u_t022_000/c2_r1_rbl u_t022_000/c3_w0_bl u_t022_000/c3_w0_br
+ u_t022_000/c3_w1_bl u_t022_000/c3_w1_br u_t022_000/c3_r0_rbl u_t022_000/c3_r1_rbl u_t022_000/r0_w0_wl
+ u_t022_000/r0_w1_wl u_t022_000/r0_r0_rwl u_t022_000/r0_r1_rwl u_t022_000/r1_w0_wl u_t022_000/r1_w1_wl
+ u_t022_000/r1_r0_rwl u_t022_000/r1_r1_rwl u_t022_000/r2_w0_wl u_t022_000/r2_w1_wl u_t022_000/r2_r0_rwl
+ u_t022_000/r2_r1_rwl u_t022_000/r3_w0_wl u_t022_000/r3_w1_wl u_t022_000/r3_r0_rwl u_t022_000/r3_r1_rwl VDD VSS VSUBS
+ gf180mcu_3v3_12t_2r2w_sram_4x4_tile
Xu_t022_011 u_t022_011/c0_w0_bl u_t022_011/c0_w0_br u_t022_011/c0_w1_bl u_t022_011/c0_w1_br u_t022_011/c0_r0_rbl
+ u_t022_011/c0_r1_rbl u_t022_011/c1_w0_bl u_t022_011/c1_w0_br u_t022_011/c1_w1_bl u_t022_011/c1_w1_br
+ u_t022_011/c1_r0_rbl u_t022_011/c1_r1_rbl u_t022_011/c2_w0_bl u_t022_011/c2_w0_br u_t022_011/c2_w1_bl
+ u_t022_011/c2_w1_br u_t022_011/c2_r0_rbl u_t022_011/c2_r1_rbl u_t022_011/c3_w0_bl u_t022_011/c3_w0_br
+ u_t022_011/c3_w1_bl u_t022_011/c3_w1_br u_t022_011/c3_r0_rbl u_t022_011/c3_r1_rbl u_t022_011/r0_w0_wl
+ u_t022_011/r0_w1_wl u_t022_011/r0_r0_rwl u_t022_011/r0_r1_rwl u_t022_011/r1_w0_wl u_t022_011/r1_w1_wl
+ u_t022_011/r1_r0_rwl u_t022_011/r1_r1_rwl u_t022_011/r2_w0_wl u_t022_011/r2_w1_wl u_t022_011/r2_r0_rwl
+ u_t022_011/r2_r1_rwl u_t022_011/r3_w0_wl u_t022_011/r3_w1_wl u_t022_011/r3_r0_rwl u_t022_011/r3_r1_rwl VDD VSS VSUBS
+ gf180mcu_3v3_12t_2r2w_sram_4x4_tile
Xu_t004_011 u_t004_011/c0_w0_bl u_t004_011/c0_w0_br u_t004_011/c0_w1_bl u_t004_011/c0_w1_br u_t004_011/c0_r0_rbl
+ u_t004_011/c0_r1_rbl u_t004_011/c1_w0_bl u_t004_011/c1_w0_br u_t004_011/c1_w1_bl u_t004_011/c1_w1_br
+ u_t004_011/c1_r0_rbl u_t004_011/c1_r1_rbl u_t004_011/c2_w0_bl u_t004_011/c2_w0_br u_t004_011/c2_w1_bl
+ u_t004_011/c2_w1_br u_t004_011/c2_r0_rbl u_t004_011/c2_r1_rbl u_t004_011/c3_w0_bl u_t004_011/c3_w0_br
+ u_t004_011/c3_w1_bl u_t004_011/c3_w1_br u_t004_011/c3_r0_rbl u_t004_011/c3_r1_rbl u_t004_011/r0_w0_wl
+ u_t004_011/r0_w1_wl u_t004_011/r0_r0_rwl u_t004_011/r0_r1_rwl u_t004_011/r1_w0_wl u_t004_011/r1_w1_wl
+ u_t004_011/r1_r0_rwl u_t004_011/r1_r1_rwl u_t004_011/r2_w0_wl u_t004_011/r2_w1_wl u_t004_011/r2_r0_rwl
+ u_t004_011/r2_r1_rwl u_t004_011/r3_w0_wl u_t004_011/r3_w1_wl u_t004_011/r3_r0_rwl u_t004_011/r3_r1_rwl VDD VSS VSUBS
+ gf180mcu_3v3_12t_2r2w_sram_4x4_tile
Xu_t004_000 u_t004_000/c0_w0_bl u_t004_000/c0_w0_br u_t004_000/c0_w1_bl u_t004_000/c0_w1_br u_t004_000/c0_r0_rbl
+ u_t004_000/c0_r1_rbl u_t004_000/c1_w0_bl u_t004_000/c1_w0_br u_t004_000/c1_w1_bl u_t004_000/c1_w1_br
+ u_t004_000/c1_r0_rbl u_t004_000/c1_r1_rbl u_t004_000/c2_w0_bl u_t004_000/c2_w0_br u_t004_000/c2_w1_bl
+ u_t004_000/c2_w1_br u_t004_000/c2_r0_rbl u_t004_000/c2_r1_rbl u_t004_000/c3_w0_bl u_t004_000/c3_w0_br
+ u_t004_000/c3_w1_bl u_t004_000/c3_w1_br u_t004_000/c3_r0_rbl u_t004_000/c3_r1_rbl u_t004_000/r0_w0_wl
+ u_t004_000/r0_w1_wl u_t004_000/r0_r0_rwl u_t004_000/r0_r1_rwl u_t004_000/r1_w0_wl u_t004_000/r1_w1_wl
+ u_t004_000/r1_r0_rwl u_t004_000/r1_r1_rwl u_t004_000/r2_w0_wl u_t004_000/r2_w1_wl u_t004_000/r2_r0_rwl
+ u_t004_000/r2_r1_rwl u_t004_000/r3_w0_wl u_t004_000/r3_w1_wl u_t004_000/r3_r0_rwl u_t004_000/r3_r1_rwl VDD VSS VSUBS
+ gf180mcu_3v3_12t_2r2w_sram_4x4_tile
Xu_t010_003 u_t010_003/c0_w0_bl u_t010_003/c0_w0_br u_t010_003/c0_w1_bl u_t010_003/c0_w1_br u_t010_003/c0_r0_rbl
+ u_t010_003/c0_r1_rbl u_t010_003/c1_w0_bl u_t010_003/c1_w0_br u_t010_003/c1_w1_bl u_t010_003/c1_w1_br
+ u_t010_003/c1_r0_rbl u_t010_003/c1_r1_rbl u_t010_003/c2_w0_bl u_t010_003/c2_w0_br u_t010_003/c2_w1_bl
+ u_t010_003/c2_w1_br u_t010_003/c2_r0_rbl u_t010_003/c2_r1_rbl u_t010_003/c3_w0_bl u_t010_003/c3_w0_br
+ u_t010_003/c3_w1_bl u_t010_003/c3_w1_br u_t010_003/c3_r0_rbl u_t010_003/c3_r1_rbl u_t010_003/r0_w0_wl
+ u_t010_003/r0_w1_wl u_t010_003/r0_r0_rwl u_t010_003/r0_r1_rwl u_t010_003/r1_w0_wl u_t010_003/r1_w1_wl
+ u_t010_003/r1_r0_rwl u_t010_003/r1_r1_rwl u_t010_003/r2_w0_wl u_t010_003/r2_w1_wl u_t010_003/r2_r0_rwl
+ u_t010_003/r2_r1_rwl u_t010_003/r3_w0_wl u_t010_003/r3_w1_wl u_t010_003/r3_r0_rwl u_t010_003/r3_r1_rwl VDD VSS VSUBS
+ gf180mcu_3v3_12t_2r2w_sram_4x4_tile
Xu_t010_014 u_t010_014/c0_w0_bl u_t010_014/c0_w0_br u_t010_014/c0_w1_bl u_t010_014/c0_w1_br u_t010_014/c0_r0_rbl
+ u_t010_014/c0_r1_rbl u_t010_014/c1_w0_bl u_t010_014/c1_w0_br u_t010_014/c1_w1_bl u_t010_014/c1_w1_br
+ u_t010_014/c1_r0_rbl u_t010_014/c1_r1_rbl u_t010_014/c2_w0_bl u_t010_014/c2_w0_br u_t010_014/c2_w1_bl
+ u_t010_014/c2_w1_br u_t010_014/c2_r0_rbl u_t010_014/c2_r1_rbl u_t010_014/c3_w0_bl u_t010_014/c3_w0_br
+ u_t010_014/c3_w1_bl u_t010_014/c3_w1_br u_t010_014/c3_r0_rbl u_t010_014/c3_r1_rbl u_t010_014/r0_w0_wl
+ u_t010_014/r0_w1_wl u_t010_014/r0_r0_rwl u_t010_014/r0_r1_rwl u_t010_014/r1_w0_wl u_t010_014/r1_w1_wl
+ u_t010_014/r1_r0_rwl u_t010_014/r1_r1_rwl u_t010_014/r2_w0_wl u_t010_014/r2_w1_wl u_t010_014/r2_r0_rwl
+ u_t010_014/r2_r1_rwl u_t010_014/r3_w0_wl u_t010_014/r3_w1_wl u_t010_014/r3_r0_rwl u_t010_014/r3_r1_rwl VDD VSS VSUBS
+ gf180mcu_3v3_12t_2r2w_sram_4x4_tile
Xu_t001_014 u_t001_014/c0_w0_bl u_t001_014/c0_w0_br u_t001_014/c0_w1_bl u_t001_014/c0_w1_br u_t001_014/c0_r0_rbl
+ u_t001_014/c0_r1_rbl u_t001_014/c1_w0_bl u_t001_014/c1_w0_br u_t001_014/c1_w1_bl u_t001_014/c1_w1_br
+ u_t001_014/c1_r0_rbl u_t001_014/c1_r1_rbl u_t001_014/c2_w0_bl u_t001_014/c2_w0_br u_t001_014/c2_w1_bl
+ u_t001_014/c2_w1_br u_t001_014/c2_r0_rbl u_t001_014/c2_r1_rbl u_t001_014/c3_w0_bl u_t001_014/c3_w0_br
+ u_t001_014/c3_w1_bl u_t001_014/c3_w1_br u_t001_014/c3_r0_rbl u_t001_014/c3_r1_rbl u_t001_014/r0_w0_wl
+ u_t001_014/r0_w1_wl u_t001_014/r0_r0_rwl u_t001_014/r0_r1_rwl u_t001_014/r1_w0_wl u_t001_014/r1_w1_wl
+ u_t001_014/r1_r0_rwl u_t001_014/r1_r1_rwl u_t001_014/r2_w0_wl u_t001_014/r2_w1_wl u_t001_014/r2_r0_rwl
+ u_t001_014/r2_r1_rwl u_t001_014/r3_w0_wl u_t001_014/r3_w1_wl u_t001_014/r3_r0_rwl u_t001_014/r3_r1_rwl VDD VSS VSUBS
+ gf180mcu_3v3_12t_2r2w_sram_4x4_tile
Xu_t001_003 u_t001_003/c0_w0_bl u_t001_003/c0_w0_br u_t001_003/c0_w1_bl u_t001_003/c0_w1_br u_t001_003/c0_r0_rbl
+ u_t001_003/c0_r1_rbl u_t001_003/c1_w0_bl u_t001_003/c1_w0_br u_t001_003/c1_w1_bl u_t001_003/c1_w1_br
+ u_t001_003/c1_r0_rbl u_t001_003/c1_r1_rbl u_t001_003/c2_w0_bl u_t001_003/c2_w0_br u_t001_003/c2_w1_bl
+ u_t001_003/c2_w1_br u_t001_003/c2_r0_rbl u_t001_003/c2_r1_rbl u_t001_003/c3_w0_bl u_t001_003/c3_w0_br
+ u_t001_003/c3_w1_bl u_t001_003/c3_w1_br u_t001_003/c3_r0_rbl u_t001_003/c3_r1_rbl u_t001_003/r0_w0_wl
+ u_t001_003/r0_w1_wl u_t001_003/r0_r0_rwl u_t001_003/r0_r1_rwl u_t001_003/r1_w0_wl u_t001_003/r1_w1_wl
+ u_t001_003/r1_r0_rwl u_t001_003/r1_r1_rwl u_t001_003/r2_w0_wl u_t001_003/r2_w1_wl u_t001_003/r2_r0_rwl
+ u_t001_003/r2_r1_rwl u_t001_003/r3_w0_wl u_t001_003/r3_w1_wl u_t001_003/r3_r0_rwl u_t001_003/r3_r1_rwl VDD VSS VSUBS
+ gf180mcu_3v3_12t_2r2w_sram_4x4_tile
Xu_t029_006 u_t029_006/c0_w0_bl u_t029_006/c0_w0_br u_t029_006/c0_w1_bl u_t029_006/c0_w1_br u_t029_006/c0_r0_rbl
+ u_t029_006/c0_r1_rbl u_t029_006/c1_w0_bl u_t029_006/c1_w0_br u_t029_006/c1_w1_bl u_t029_006/c1_w1_br
+ u_t029_006/c1_r0_rbl u_t029_006/c1_r1_rbl u_t029_006/c2_w0_bl u_t029_006/c2_w0_br u_t029_006/c2_w1_bl
+ u_t029_006/c2_w1_br u_t029_006/c2_r0_rbl u_t029_006/c2_r1_rbl u_t029_006/c3_w0_bl u_t029_006/c3_w0_br
+ u_t029_006/c3_w1_bl u_t029_006/c3_w1_br u_t029_006/c3_r0_rbl u_t029_006/c3_r1_rbl u_t029_006/r0_w0_wl
+ u_t029_006/r0_w1_wl u_t029_006/r0_r0_rwl u_t029_006/r0_r1_rwl u_t029_006/r1_w0_wl u_t029_006/r1_w1_wl
+ u_t029_006/r1_r0_rwl u_t029_006/r1_r1_rwl u_t029_006/r2_w0_wl u_t029_006/r2_w1_wl u_t029_006/r2_r0_rwl
+ u_t029_006/r2_r1_rwl u_t029_006/r3_w0_wl u_t029_006/r3_w1_wl u_t029_006/r3_r0_rwl u_t029_006/r3_r1_rwl VDD VSS VSUBS
+ gf180mcu_3v3_12t_2r2w_sram_4x4_tile
Xu_t026_009 u_t026_009/c0_w0_bl u_t026_009/c0_w0_br u_t026_009/c0_w1_bl u_t026_009/c0_w1_br u_t026_009/c0_r0_rbl
+ u_t026_009/c0_r1_rbl u_t026_009/c1_w0_bl u_t026_009/c1_w0_br u_t026_009/c1_w1_bl u_t026_009/c1_w1_br
+ u_t026_009/c1_r0_rbl u_t026_009/c1_r1_rbl u_t026_009/c2_w0_bl u_t026_009/c2_w0_br u_t026_009/c2_w1_bl
+ u_t026_009/c2_w1_br u_t026_009/c2_r0_rbl u_t026_009/c2_r1_rbl u_t026_009/c3_w0_bl u_t026_009/c3_w0_br
+ u_t026_009/c3_w1_bl u_t026_009/c3_w1_br u_t026_009/c3_r0_rbl u_t026_009/c3_r1_rbl u_t026_009/r0_w0_wl
+ u_t026_009/r0_w1_wl u_t026_009/r0_r0_rwl u_t026_009/r0_r1_rwl u_t026_009/r1_w0_wl u_t026_009/r1_w1_wl
+ u_t026_009/r1_r0_rwl u_t026_009/r1_r1_rwl u_t026_009/r2_w0_wl u_t026_009/r2_w1_wl u_t026_009/r2_r0_rwl
+ u_t026_009/r2_r1_rwl u_t026_009/r3_w0_wl u_t026_009/r3_w1_wl u_t026_009/r3_r0_rwl u_t026_009/r3_r1_rwl VDD VSS VSUBS
+ gf180mcu_3v3_12t_2r2w_sram_4x4_tile
Xu_t017_009 u_t017_009/c0_w0_bl u_t017_009/c0_w0_br u_t017_009/c0_w1_bl u_t017_009/c0_w1_br u_t017_009/c0_r0_rbl
+ u_t017_009/c0_r1_rbl u_t017_009/c1_w0_bl u_t017_009/c1_w0_br u_t017_009/c1_w1_bl u_t017_009/c1_w1_br
+ u_t017_009/c1_r0_rbl u_t017_009/c1_r1_rbl u_t017_009/c2_w0_bl u_t017_009/c2_w0_br u_t017_009/c2_w1_bl
+ u_t017_009/c2_w1_br u_t017_009/c2_r0_rbl u_t017_009/c2_r1_rbl u_t017_009/c3_w0_bl u_t017_009/c3_w0_br
+ u_t017_009/c3_w1_bl u_t017_009/c3_w1_br u_t017_009/c3_r0_rbl u_t017_009/c3_r1_rbl u_t017_009/r0_w0_wl
+ u_t017_009/r0_w1_wl u_t017_009/r0_r0_rwl u_t017_009/r0_r1_rwl u_t017_009/r1_w0_wl u_t017_009/r1_w1_wl
+ u_t017_009/r1_r0_rwl u_t017_009/r1_r1_rwl u_t017_009/r2_w0_wl u_t017_009/r2_w1_wl u_t017_009/r2_r0_rwl